
     RDKit          3D

 25 27  0  0  0  0  0  0  0  0999 V2000
   10.4298   -1.5226    1.4318 Br  0  0  0  0  0  0  0  0  0  0  0  0
    9.1023   -0.3594    2.1078 C   0  0  0  0  0  0  0  0  0  0  0  0
    9.4753    0.7842    2.8078 C   0  0  0  0  0  0  0  0  0  0  0  0
    7.7571   -0.6499    1.9001 C   0  0  0  0  0  0  0  0  0  0  0  0
    8.4942    1.6459    3.3048 C   0  0  0  0  0  0  0  0  0  0  0  0
    6.7767    0.2112    2.3988 C   0  0  0  0  0  0  0  0  0  0  0  0
    7.1318    1.3690    3.1118 C   0  0  0  0  0  0  0  0  0  0  0  0
    6.0311    2.3004    3.6254 C   0  0  2  0  0  0  0  0  0  0  0  0
    6.3585    3.7705    3.2275 C   0  0  2  0  0  0  0  0  0  0  0  0
    5.7550    2.1613    5.1366 C   0  0  0  0  0  0  0  0  0  0  0  0
    7.5207    4.2036    3.9491 O   0  0  0  0  0  0  0  0  0  0  0  0
    5.1680    4.6825    3.5118 C   0  0  0  0  0  0  0  0  0  0  0  0
    4.7722    1.1395    5.4384 N   0  0  0  0  0  0  0  0  0  0  0  0
    8.0776    5.4063    3.4257 C   0  0  0  0  0  0  0  0  0  0  0  0
    4.8272    5.7496    2.6666 C   0  0  0  0  0  0  0  0  0  0  0  0
    4.3910    4.4671    4.6630 C   0  0  0  0  0  0  0  0  0  0  0  0
    4.5668    0.1125    4.5966 N   0  0  0  0  0  0  0  0  0  0  0  0
    4.0068    1.0216    6.5607 C   0  0  0  0  0  0  0  0  0  0  0  0
    8.1447    5.3733    2.0088 O   0  0  0  0  0  0  0  0  0  0  0  0
    3.7483    6.5828    2.9684 C   0  0  0  0  0  0  0  0  0  0  0  0
    3.3127    5.3014    4.9637 C   0  0  0  0  0  0  0  0  0  0  0  0
    3.6460   -0.6711    5.1427 N   0  0  0  0  0  0  0  0  0  0  0  0
    3.2919   -0.1313    6.3462 C   0  0  0  0  0  0  0  0  0  0  0  0
    7.8400    6.6383    1.4419 C   0  0  0  0  0  0  0  0  0  0  0  0
    2.9934    6.3603    4.1175 C   0  0  0  0  0  0  0  0  0  0  0  0
  1  2  1  0
  2  3  4  0
  2  4  4  0
  3  5  4  0
  4  6  4  0
  5  7  4  0
  7  8  1  0
  8  9  1  0
  8 10  1  1
  9 11  1  1
  9 12  1  0
 10 13  1  0
 11 14  1  0
 12 15  4  0
 12 16  4  0
 13 17  4  0
 13 18  4  0
 14 19  1  0
 15 20  4  0
 16 21  4  0
 17 22  4  0
 18 23  4  0
 19 24  1  0
 20 25  4  0
  6  7  4  0
 21 25  4  0
 22 23  4  0
M  END
