
     RDKit          3D

 21 23  0  0  0  0  0  0  0  0999 V2000
   10.4241   -0.0194    1.5009 Br  0  0  0  0  0  0  0  0  0  0  0  0
    9.1306    1.0782    2.3343 C   0  0  0  0  0  0  0  0  0  0  0  0
    7.9100    0.5335    2.7258 C   0  0  0  0  0  0  0  0  0  0  0  0
    9.4054    2.4272    2.5513 C   0  0  0  0  0  0  0  0  0  0  0  0
    6.9554    1.3466    3.3407 C   0  0  0  0  0  0  0  0  0  0  0  0
    8.4495    3.2396    3.1666 C   0  0  0  0  0  0  0  0  0  0  0  0
    7.2167    2.7054    3.5652 C   0  0  0  0  0  0  0  0  0  0  0  0
    6.2082    3.5573    4.2272 C   0  0  0  0  0  0  0  0  0  0  0  0
    6.0110    4.8517    3.8988 C   0  0  0  0  0  0  0  0  0  0  0  0
    5.3993    2.8939    5.3211 C   0  0  0  0  0  0  0  0  0  0  0  0
    6.7263    5.6206    2.8722 C   0  0  0  0  0  0  0  0  0  0  0  0
    4.8763    1.5996    4.9152 N   0  0  0  0  0  0  0  0  0  0  0  0
    6.1215    5.8174    1.6253 C   0  0  0  0  0  0  0  0  0  0  0  0
    7.9806    6.1891    3.1211 C   0  0  0  0  0  0  0  0  0  0  0  0
    4.4278    1.4064    3.6605 N   0  0  0  0  0  0  0  0  0  0  0  0
    4.7134    0.4792    5.6762 C   0  0  0  0  0  0  0  0  0  0  0  0
    6.7714    6.5559    0.6342 C   0  0  0  0  0  0  0  0  0  0  0  0
    8.6301    6.9267    2.1289 C   0  0  0  0  0  0  0  0  0  0  0  0
    3.9889    0.1567    3.5834 N   0  0  0  0  0  0  0  0  0  0  0  0
    4.1576   -0.4271    4.8068 C   0  0  0  0  0  0  0  0  0  0  0  0
    8.0260    7.1085    0.8859 C   0  0  0  0  0  0  0  0  0  0  0  0
  1  2  1  0
  2  3  4  0
  2  4  4  0
  3  5  4  0
  4  6  4  0
  5  7  4  0
  7  8  1  0
  8  9  2  0
  8 10  1  0
  9 11  1  0
 10 12  1  0
 11 13  4  0
 11 14  4  0
 12 15  4  0
 12 16  4  0
 13 17  4  0
 14 18  4  0
 15 19  4  0
 16 20  4  0
 17 21  4  0
  6  7  4  0
 18 21  4  0
 19 20  4  0
M  END
