
     RDKit          3D

 22 25  0  0  0  0  0  0  0  0999 V2000
    7.9664    6.3935    1.0110 O   0  0  0  0  0  0  0  0  0  0  0  0
    7.4914    5.5816    1.7945 C   0  0  0  0  0  0  0  0  0  0  0  0
    8.1119    4.2720    2.0438 C   0  0  0  0  0  0  0  0  0  0  0  0
    6.2583    5.8799    2.5359 C   0  0  0  0  0  0  0  0  0  0  0  0
    7.5117    3.3981    2.9497 C   0  0  0  0  0  0  0  0  0  0  0  0
    9.2864    3.9146    1.3817 C   0  0  0  0  0  0  0  0  0  0  0  0
    5.7648    4.9605    3.3765 C   0  0  0  0  0  0  0  0  0  0  0  0
    6.3526    3.7298    3.6162 O   0  0  0  0  0  0  0  0  0  0  0  0
    8.0858    2.1334    3.2121 C   0  0  0  0  0  0  0  0  0  0  0  0
    9.8656    2.6706    1.6298 C   0  0  0  0  0  0  0  0  0  0  0  0
    4.5358    5.2032    4.1576 C   0  0  0  0  0  0  0  0  0  0  0  0
    9.2806    1.7733    2.5380 C   0  0  0  0  0  0  0  0  0  0  0  0
    7.5231    1.2097    4.1174 C   0  0  0  0  0  0  0  0  0  0  0  0
    3.7626    6.3599    3.9727 C   0  0  0  0  0  0  0  0  0  0  0  0
    4.1010    4.2514    5.0928 C   0  0  0  0  0  0  0  0  0  0  0  0
    9.8684    0.5211    2.7852 C   0  0  0  0  0  0  0  0  0  0  0  0
    8.1252   -0.0235    4.3448 C   0  0  0  0  0  0  0  0  0  0  0  0
    2.5962    6.5656    4.7149 C   0  0  0  0  0  0  0  0  0  0  0  0
    2.9352    4.4576    5.8348 C   0  0  0  0  0  0  0  0  0  0  0  0
    9.2940   -0.3768    3.6864 C   0  0  0  0  0  0  0  0  0  0  0  0
    7.5279   -0.8671    5.2338 O   0  0  0  0  0  0  0  0  0  0  0  0
    2.1846    5.6156    5.6467 C   0  0  0  0  0  0  0  0  0  0  0  0
  1  2  2  0
  2  3  4  0
  2  4  4  0
  3  5  4  0
  3  6  4  0
  4  7  4  0
  5  8  4  0
  5  9  4  0
  6 10  4  0
  7 11  1  0
  9 12  4  0
  9 13  4  0
 11 14  4  0
 11 15  4  0
 12 16  4  0
 13 17  4  0
 14 18  4  0
 15 19  4  0
 16 20  4  0
 17 21  1  0
 18 22  4  0
  7  8  4  0
 10 12  4  0
 17 20  4  0
 19 22  4  0
M  END
