
     RDKit          3D

 20 23  0  0  0  0  0  0  0  0999 V2000
    8.4118   -0.7532    3.3558 O   0  0  0  0  0  0  0  0  0  0  0  0
    8.4412    0.4947    2.6906 C   0  0  1  0  0  0  0  0  0  0  0  0
    7.5643    1.5802    3.3478 C   0  0  1  0  0  0  0  0  0  0  0  0
    9.8535    1.1136    2.6671 C   0  0  0  0  0  0  0  0  0  0  0  0
    8.1455    2.8232    2.6489 C   0  0  2  0  0  0  0  0  0  0  0  0
    6.0736    1.4984    2.9957 C   0  0  0  0  0  0  0  0  0  0  0  0
    7.7373    1.5682    4.8871 C   0  0  0  0  0  0  0  0  0  0  0  0
    9.6552    2.6366    2.7799 C   0  0  0  0  0  0  0  0  0  0  0  0
    7.5151    4.1318    3.1344 C   0  0  2  0  0  0  0  0  0  0  0  0
    5.3255    2.7765    3.4146 C   0  0  0  0  0  0  0  0  0  0  0  0
    5.9754    4.0864    2.8896 C   0  0  1  0  0  0  0  0  0  0  0  0
    8.1452    5.3418    2.4270 C   0  0  0  0  0  0  0  0  0  0  0  0
    5.2785    5.4036    3.4083 C   0  0  1  0  0  0  0  0  0  0  0  0
    7.3127    6.5853    2.4721 C   0  0  0  0  0  0  0  0  0  0  0  0
    6.0349    6.6362    2.8875 C   0  0  0  0  0  0  0  0  0  0  0  0
    3.8174    5.4568    2.8793 C   0  0  0  0  0  0  0  0  0  0  0  0
    5.2626    5.4637    4.9574 C   0  0  0  0  0  0  0  0  0  0  0  0
    5.3077    7.8934    2.8139 C   0  0  0  0  0  0  0  0  0  0  0  0
    3.1037    6.7778    3.1874 C   0  0  0  0  0  0  0  0  0  0  0  0
    3.9790    7.9723    2.9676 C   0  0  0  0  0  0  0  0  0  0  0  0
  2  1  1  1
  2  3  1  0
  2  4  1  0
  3  5  1  0
  3  6  1  0
  3  7  1  1
  4  8  1  0
  5  9  1  0
  6 10  1  0
  9 11  1  0
  9 12  1  6
 11 13  1  0
 12 14  1  0
 13 15  1  0
 13 16  1  0
 13 17  1  1
 15 18  1  0
 16 19  1  0
 18 20  2  0
  5  8  1  1
 11 10  1  1
 14 15  2  0
 19 20  1  0
M  END
