
     RDKit          3D

 23 26  0  0  0  0  0  0  0  0999 V2000
    4.6143    8.2350    1.3394 O   0  0  0  0  0  0  0  0  0  0  0  0
    4.9325    7.2882    2.0568 C   0  0  0  0  0  0  0  0  0  0  0  0
    6.3683    7.0924    2.3686 C   0  0  0  0  0  0  0  0  0  0  0  0
    3.9161    6.3593    2.7097 C   0  0  2  0  0  0  0  0  0  0  0  0
    6.8298    6.0292    3.0488 C   0  0  0  0  0  0  0  0  0  0  0  0
    4.5369    4.9538    2.8641 C   0  0  0  0  0  0  0  0  0  0  0  0
    2.6782    6.2381    1.7990 C   0  0  0  0  0  0  0  0  0  0  0  0
    3.4766    6.9821    4.0407 C   0  0  0  0  0  0  0  0  0  0  0  0
    5.9548    4.8629    3.5131 C   0  0  1  0  0  0  0  0  0  0  0  0
    8.3022    5.9369    3.3767 C   0  0  0  0  0  0  0  0  0  0  0  0
    6.6283    3.5130    3.0350 C   0  0  1  0  0  0  0  0  0  0  0  0
    5.8322    4.8971    5.0538 C   0  0  0  0  0  0  0  0  0  0  0  0
    8.9066    4.6326    2.8687 C   0  0  0  0  0  0  0  0  0  0  0  0
    8.1445    3.4181    3.4120 C   0  0  2  0  0  0  0  0  0  0  0  0
    5.8443    2.2366    3.4532 C   0  0  0  0  0  0  0  0  0  0  0  0
    8.6938    2.1027    2.8534 C   0  0  2  0  0  0  0  0  0  0  0  0
    6.5195    0.9227    3.0169 C   0  0  0  0  0  0  0  0  0  0  0  0
    7.9770    0.8813    3.4647 C   0  0  1  0  0  0  0  0  0  0  0  0
   10.1761    1.7747    2.9939 C   0  0  0  0  0  0  0  0  0  0  0  0
    8.8440   -0.2073    2.8583 C   0  0  0  0  0  0  0  0  0  0  0  0
    8.0882    0.7298    4.9932 C   0  0  0  0  0  0  0  0  0  0  0  0
   10.2411    0.3052    2.5509 C   0  0  0  0  0  0  0  0  0  0  0  0
    8.4809   -1.3596    2.6644 O   0  0  0  0  0  0  0  0  0  0  0  0
  1  2  2  0
  2  3  1  0
  2  4  1  0
  3  5  2  0
  4  6  1  0
  4  7  1  6
  4  8  1  0
  5  9  1  0
  5 10  1  0
  9 11  1  0
  9 12  1  1
 10 13  1  0
 11 14  1  0
 11 15  1  1
 14 16  1  0
 15 17  1  0
 16 18  1  0
 16 19  1  1
 18 20  1  0
 18 21  1  1
 19 22  1  0
 20 23  2  0
  6  9  1  0
 14 13  1  6
 17 18  1  0
 20 22  1  0
M  END
