
     RDKit          3D

 23 27  0  0  0  0  0  0  0  0999 V2000
    3.6525    8.3870    4.5592 O   0  0  0  0  0  0  0  0  0  0  0  0
    4.1678    7.2836    4.4134 C   0  0  0  0  0  0  0  0  0  0  0  0
    4.7425    6.8977    3.1006 C   0  0  0  0  0  0  0  0  0  0  0  0
    4.2098    6.2370    5.5111 C   0  0  0  0  0  0  0  0  0  0  0  0
    5.2538    5.6586    2.9587 C   0  0  0  0  0  0  0  0  0  0  0  0
    5.4993    5.4136    5.3873 C   0  0  0  0  0  0  0  0  0  0  0  0
    3.0883    5.2388    5.2259 C   0  0  0  0  0  0  0  0  0  0  0  0
    5.2178    4.6131    4.0889 C   0  0  1  0  0  0  0  0  0  0  0  0
    6.1325    5.3535    1.7835 C   0  0  0  0  0  0  0  0  0  0  0  0
    3.7611    4.1254    4.4050 C   0  0  1  0  0  0  0  0  0  0  0  0
    6.2531    3.4537    3.8798 C   0  0  2  0  0  0  0  0  0  0  0  0
    7.5401    5.1272    2.3291 C   0  0  0  0  0  0  0  0  0  0  0  0
    3.7807    2.9614    5.2345 O   0  0  0  0  0  0  0  0  0  0  0  0
    7.6403    3.9276    3.3017 C   0  0  2  0  0  0  0  0  0  0  0  0
    5.7372    2.2295    3.0640 C   0  0  0  0  0  0  0  0  0  0  0  0
    8.3516    2.7631    2.5842 C   0  0  2  0  0  0  0  0  0  0  0  0
    6.6841    1.0080    3.1592 C   0  0  0  0  0  0  0  0  0  0  0  0
    8.1593    1.4049    3.2796 C   0  0  1  0  0  0  0  0  0  0  0  0
    9.8570    2.8646    2.3499 C   0  0  0  0  0  0  0  0  0  0  0  0
    9.1348    0.5891    2.4436 C   0  0  0  0  0  0  0  0  0  0  0  0
    8.6678    1.3148    4.7295 C   0  0  0  0  0  0  0  0  0  0  0  0
   10.2152    1.4650    1.8336 C   0  0  0  0  0  0  0  0  0  0  0  0
    9.0815   -0.6249    2.2961 O   0  0  0  0  0  0  0  0  0  0  0  0
  1  2  2  0
  2  3  1  0
  2  4  1  0
  3  5  2  0
  4  6  1  0
  4  7  1  0
  5  8  1  0
  5  9  1  0
  7 10  1  0
  8 11  1  0
  9 12  1  0
 10 13  1  1
 11 14  1  0
 11 15  1  6
 14 16  1  0
 15 17  1  0
 16 18  1  0
 16 19  1  1
 18 20  1  0
 18 21  1  1
 19 22  1  0
 20 23  2  0
  8  6  1  1
  8 10  1  0
 14 12  1  6
 17 18  1  0
 20 22  1  0
M  END
