
     RDKit          3D

 25 28  0  0  0  0  0  0  0  0999 V2000
    8.6482   -4.9372    3.1185 F   0  0  0  0  0  0  0  0  0  0  0  0
    8.8457   -3.6155    3.1445 C   0  0  0  0  0  0  0  0  0  0  0  0
    8.2676   -2.7733    2.2351 C   0  0  0  0  0  0  0  0  0  0  0  0
    9.6404   -3.0150    4.0817 C   0  0  0  0  0  0  0  0  0  0  0  0
    8.4533   -1.4350    2.2422 N   0  0  0  0  0  0  0  0  0  0  0  0
    9.8543   -1.6815    4.1279 N   0  0  0  0  0  0  0  0  0  0  0  0
    9.2463   -0.9154    3.2003 C   0  0  0  0  0  0  0  0  0  0  0  0
    9.4681    0.4429    3.2139 N   0  0  0  0  0  0  0  0  0  0  0  0
   10.8231    0.9297    2.9615 C   0  0  0  0  0  0  0  0  0  0  0  0
    8.3554    1.3425    2.9056 C   0  0  0  0  0  0  0  0  0  0  0  0
   10.8984    2.4342    3.3028 C   0  0  0  0  0  0  0  0  0  0  0  0
    8.8158    2.5265    2.0226 C   0  0  0  0  0  0  0  0  0  0  0  0
    9.9817    3.2925    2.5163 N   0  0  0  0  0  0  0  0  0  0  0  0
    9.6102    4.4792    3.2907 C   0  0  0  0  0  0  0  0  0  0  0  0
    8.3636    5.1052    2.7778 C   0  0  0  0  0  0  0  0  0  0  0  0
    7.2896    5.4148    3.5747 N   0  0  0  0  0  0  0  0  0  0  0  0
    7.9846    5.5177    1.5214 C   0  0  0  0  0  0  0  0  0  0  0  0
    6.3098    5.9914    2.7968 C   0  0  0  0  0  0  0  0  0  0  0  0
    6.7251    6.0566    1.5433 N   0  0  0  0  0  0  0  0  0  0  0  0
    5.0060    6.4475    3.2961 C   0  0  0  0  0  0  0  0  0  0  0  0
    4.4950    7.7269    3.0293 C   0  0  0  0  0  0  0  0  0  0  0  0
    4.2296    5.5720    4.0715 C   0  0  0  0  0  0  0  0  0  0  0  0
    3.2474    8.1170    3.5293 C   0  0  0  0  0  0  0  0  0  0  0  0
    2.9842    5.9608    4.5713 C   0  0  0  0  0  0  0  0  0  0  0  0
    2.4940    7.2349    4.3002 C   0  0  0  0  0  0  0  0  0  0  0  0
  1  2  1  0
  2  3  4  0
  2  4  4  0
  3  5  4  0
  4  6  4  0
  5  7  4  0
  7  8  1  0
  8  9  1  0
  8 10  1  0
  9 11  1  0
 10 12  1  0
 11 13  1  0
 13 14  1  0
 14 15  1  0
 15 16  4  0
 15 17  4  0
 16 18  4  0
 17 19  4  0
 18 20  1  0
 20 21  4  0
 20 22  4  0
 21 23  4  0
 22 24  4  0
 23 25  4  0
  6  7  4  0
 12 13  1  0
 18 19  4  0
 24 25  4  0
M  END
