
     RDKit          3D

 25 28  0  0  0  0  0  0  0  0999 V2000
    3.8053    7.2563    4.2345 F   0  0  0  0  0  0  0  0  0  0  0  0
    3.9589    5.9430    4.4479 C   0  0  0  0  0  0  0  0  0  0  0  0
    3.8877    5.4468    5.7425 C   0  0  0  0  0  0  0  0  0  0  0  0
    4.1820    5.0953    3.3715 C   0  0  0  0  0  0  0  0  0  0  0  0
    4.0483    4.0777    5.9648 C   0  0  0  0  0  0  0  0  0  0  0  0
    4.3424    3.7251    3.5915 C   0  0  0  0  0  0  0  0  0  0  0  0
    4.2955    3.1984    4.8938 C   0  0  0  0  0  0  0  0  0  0  0  0
    4.4345    1.7175    5.1809 C   0  0  0  0  0  0  0  0  0  0  0  0
    5.0344    0.9529    4.0975 N   0  0  0  0  0  0  0  0  0  0  0  0
    6.3658    0.9638    3.7297 C   0  0  0  0  0  0  0  0  0  0  0  0
    4.4026   -0.0454    3.3829 C   0  0  0  0  0  0  0  0  0  0  0  0
    6.6133    0.0238    2.8455 N   0  0  0  0  0  0  0  0  0  0  0  0
    7.2679    1.8208    4.2889 N   0  0  0  0  0  0  0  0  0  0  0  0
    5.4161   -0.5961    2.6063 C   0  0  0  0  0  0  0  0  0  0  0  0
    3.0828   -0.5160    3.3444 C   0  0  0  0  0  0  0  0  0  0  0  0
    7.3951    3.1451    3.6494 C   0  0  0  0  0  0  0  0  0  0  0  0
    8.5440    1.2170    4.6953 C   0  0  0  0  0  0  0  0  0  0  0  0
    5.1219   -1.6572    1.7370 C   0  0  0  0  0  0  0  0  0  0  0  0
    2.8076   -1.5738    2.4700 C   0  0  0  0  0  0  0  0  0  0  0  0
    8.8025    3.4199    3.1104 C   0  0  0  0  0  0  0  0  0  0  0  0
    9.5191    1.0515    3.5287 C   0  0  0  0  0  0  0  0  0  0  0  0
    3.8083   -2.1370    1.6770 C   0  0  0  0  0  0  0  0  0  0  0  0
    9.3783    2.1568    2.4663 C   0  0  0  0  0  0  0  0  0  0  0  0
   10.6931    2.3719    1.8318 N   0  0  0  0  0  0  0  0  0  0  0  0
   11.6830    2.9121    2.7566 C   0  0  0  0  0  0  0  0  0  0  0  0
  1  2  1  0
  2  3  4  0
  2  4  4  0
  3  5  4  0
  4  6  4  0
  5  7  4  0
  7  8  1  0
  8  9  1  0
  9 10  4  0
  9 11  4  0
 10 12  4  0
 10 13  1  0
 11 14  4  0
 11 15  4  0
 13 16  1  0
 13 17  1  0
 14 18  4  0
 15 19  4  0
 16 20  1  0
 17 21  1  0
 18 22  4  0
 20 23  1  0
 23 24  1  0
 24 25  1  0
  6  7  4  0
 12 14  4  0
 19 22  4  0
 21 23  1  0
M  END
