
     RDKit          3D

 36 39  0  0  0  0  0  0  0  0999 V2000
    7.2674    3.5084    3.9452 O   0  0  0  0  0  0  0  0  0  0  0  0
    6.1358    3.8096    3.5824 C   0  0  0  0  0  0  0  0  0  0  0  0
    5.0470    2.9634    3.6494 N   0  0  0  0  0  0  0  0  0  0  0  0
    5.8793    5.1482    2.9882 C   0  0  0  0  0  0  0  0  0  0  0  0
    4.4418    2.6141    4.9308 C   0  0  0  0  0  0  0  0  0  0  0  0
    4.8250    5.9115    3.5036 C   0  0  0  0  0  0  0  0  0  0  0  0
    6.6485    5.6469    1.9287 C   0  0  0  0  0  0  0  0  0  0  0  0
    5.1545    1.4325    5.6749 C   0  0  0  0  0  0  0  0  0  0  0  0
    4.5543    7.1749    2.9775 C   0  0  0  0  0  0  0  0  0  0  0  0
    6.3725    6.9112    1.4037 C   0  0  0  0  0  0  0  0  0  0  0  0
    6.2378    0.7757    4.8901 N   0  0  0  0  0  0  0  0  0  0  0  0
    4.1030    0.4103    6.1274 C   0  0  0  0  0  0  0  0  0  0  0  0
    5.3295    7.6742    1.9304 C   0  0  0  0  0  0  0  0  0  0  0  0
    7.2004    0.0006    5.6877 C   0  0  0  0  0  0  0  0  0  0  0  0
    5.6860   -0.0676    3.7965 C   0  0  0  0  0  0  0  0  0  0  0  0
    3.8074    0.2283    7.4877 C   0  0  0  0  0  0  0  0  0  0  0  0
    3.4312   -0.3817    5.1805 C   0  0  0  0  0  0  0  0  0  0  0  0
    6.7218   -1.4103    6.1104 C   0  0  0  0  0  0  0  0  0  0  0  0
    6.2161   -1.5207    3.7358 C   0  0  0  0  0  0  0  0  0  0  0  0
    2.8659   -0.7200    7.8889 C   0  0  0  0  0  0  0  0  0  0  0  0
    2.4875   -1.3275    5.5848 C   0  0  0  0  0  0  0  0  0  0  0  0
    6.0652   -2.1882    5.0383 N   0  0  0  0  0  0  0  0  0  0  0  0
    2.2059   -1.4965    6.9385 C   0  0  0  0  0  0  0  0  0  0  0  0
    6.5110   -3.5907    4.9886 C   0  0  0  0  0  0  0  0  0  0  0  0
    7.9924   -3.8141    4.5889 C   0  0  0  0  0  0  0  0  0  0  0  0
    8.2096   -3.5012    3.2086 O   0  0  0  0  0  0  0  0  0  0  0  0
    8.9915   -3.0371    5.4652 C   0  0  0  0  0  0  0  0  0  0  0  0
    9.6515   -2.0457    4.6678 O   0  0  0  0  0  0  0  0  0  0  0  0
   10.9812   -2.2686    4.4487 C   0  0  0  0  0  0  0  0  0  0  0  0
   12.0144   -1.5138    5.0007 C   0  0  0  0  0  0  0  0  0  0  0  0
   11.2825   -3.3686    3.6494 C   0  0  0  0  0  0  0  0  0  0  0  0
   13.3490   -1.8442    4.7297 C   0  0  0  0  0  0  0  0  0  0  0  0
   12.6116   -3.6971    3.3778 C   0  0  0  0  0  0  0  0  0  0  0  0
   13.6523   -2.9356    3.9132 C   0  0  0  0  0  0  0  0  0  0  0  0
   14.9063   -3.3653    3.5755 O   0  0  0  0  0  0  0  0  0  0  0  0
   15.3882   -4.5273    4.2414 C   0  0  0  0  0  0  0  0  0  0  0  0
  1  2  2  0
  2  3  1  0
  2  4  1  0
  3  5  1  0
  4  6  4  0
  4  7  4  0
  5  8  1  0
  6  9  4  0
  7 10  4  0
  8 11  1  0
  8 12  1  0
  9 13  4  0
 11 14  1  0
 11 15  1  0
 12 16  4  0
 12 17  4  0
 14 18  1  0
 15 19  1  0
 16 20  4  0
 17 21  4  0
 18 22  1  0
 20 23  4  0
 22 24  1  0
 24 25  1  0
 25 26  1  0
 25 27  1  0
 27 28  1  0
 28 29  1  0
 29 30  4  0
 29 31  4  0
 30 32  4  0
 31 33  4  0
 32 34  4  0
 34 35  1  0
 35 36  1  0
 10 13  4  0
 19 22  1  0
 21 23  4  0
 33 34  4  0
M  END
