
     RDKit          3D

 28 32  0  0  0  0  0  0  0  0999 V2000
   10.6729    1.2766   -0.2921 O   0  0  0  0  0  0  0  0  0  0  0  0
   10.0987    0.9820    0.7539 C   0  0  0  0  0  0  0  0  0  0  0  0
    9.1609    1.9507    1.3632 C   0  0  0  0  0  0  0  0  0  0  0  0
   10.3678   -0.3120    1.4753 C   0  0  0  0  0  0  0  0  0  0  0  0
    8.5233    1.6900    2.5174 C   0  0  0  0  0  0  0  0  0  0  0  0
    9.1742   -0.7294    2.3251 C   0  0  0  0  0  0  0  0  0  0  0  0
    7.6522    2.7020    3.0877 C   0  0  0  0  0  0  0  0  0  0  0  0
    8.6783    0.3821    3.2930 C   0  0  2  0  0  0  0  0  0  0  0  0
    6.8323    2.5120    4.1419 C   0  0  0  0  0  0  0  0  0  0  0  0
    7.2725   -0.0007    3.8653 C   0  0  2  0  0  0  0  0  0  0  0  0
    9.7230    0.5766    4.4164 C   0  0  0  0  0  0  0  0  0  0  0  0
    6.6542    1.1313    4.7802 C   0  0  2  0  0  0  0  0  0  0  0  0
    6.1514    3.6966    4.8120 C   0  0  0  0  0  0  0  0  0  0  0  0
    7.2211   -1.3905    4.5492 C   0  0  0  0  0  0  0  0  0  0  0  0
    5.2060    0.6639    5.0899 C   0  0  1  0  0  0  0  0  0  0  0  0
    5.6667    4.8038    3.8966 C   0  0  0  0  0  0  0  0  0  0  0  0
    5.8105   -1.7675    5.0203 C   0  0  0  0  0  0  0  0  0  0  0  0
    5.2140   -0.6688    5.8902 C   0  0  2  0  0  0  0  0  0  0  0  0
    4.2022    1.5161    5.8678 C   0  0  0  0  0  0  0  0  0  0  0  0
    6.5813    5.6342    3.2330 C   0  0  0  0  0  0  0  0  0  0  0  0
    4.2929    5.0150    3.7040 C   0  0  0  0  0  0  0  0  0  0  0  0
    3.7271   -0.8003    6.1607 C   0  0  0  0  0  0  0  0  0  0  0  0
    5.9031   -0.6187    7.2680 C   0  0  0  0  0  0  0  0  0  0  0  0
    3.0431    0.5483    6.1477 C   0  0  0  0  0  0  0  0  0  0  0  0
    6.1298    6.6553    2.3953 C   0  0  0  0  0  0  0  0  0  0  0  0
    3.8446    6.0369    2.8663 C   0  0  0  0  0  0  0  0  0  0  0  0
    3.1507   -1.8555    6.3879 O   0  0  0  0  0  0  0  0  0  0  0  0
    4.7628    6.8562    2.2124 C   0  0  0  0  0  0  0  0  0  0  0  0
  1  2  2  0
  2  3  1  0
  2  4  1  0
  3  5  2  0
  4  6  1  0
  5  7  1  0
  5  8  1  0
  7  9  2  0
  8 10  1  0
  8 11  1  1
 12  9  1  6
  9 13  1  0
 10 14  1  1
 12 15  1  0
 13 16  1  0
 14 17  1  0
 15 18  1  0
 15 19  1  1
 16 20  4  0
 16 21  4  0
 18 22  1  0
 18 23  1  1
 19 24  1  0
 20 25  4  0
 21 26  4  0
 22 27  2  0
 25 28  4  0
  6  8  1  0
 10 12  1  0
 17 18  1  0
 22 24  1  0
 26 28  4  0
M  END
