
     RDKit          3D

 27 29  0  0  0  0  0  0  0  0999 V2000
-1245.2087   94.8698  486.4613 O   0  0  0  0  0  0  0  0  0  0  0  0
-1245.5851   95.6842  487.4926 C   0  0  0  0  0  0  0  0  0  0  0  0
-1246.2914   94.1125  485.9006 C   0  0  0  0  0  0  0  0  0  0  0  0
-1246.8655   95.5029  488.0120 C   0  0  0  0  0  0  0  0  0  0  0  0
-1244.7786   96.7213  487.9597 C   0  0  0  0  0  0  0  0  0  0  0  0
-1246.3987   94.4268  484.4039 C   0  0  0  0  0  0  0  0  0  0  0  0
-1247.3303   96.3382  489.0305 C   0  0  0  0  0  0  0  0  0  0  0  0
-1245.2437   97.5596  488.9756 C   0  0  0  0  0  0  0  0  0  0  0  0
-1247.5111   93.7091  483.7710 N   0  0  0  0  0  0  0  0  0  0  0  0
-1246.5256   97.3772  489.5153 C   0  0  0  0  0  0  0  0  0  0  0  0
-1247.0282   98.2682  490.5964 C   0  0  0  0  0  0  0  0  0  0  0  0
-1247.3007   99.6966  490.2975 C   0  0  0  0  0  0  0  0  0  0  0  0
-1247.2493   97.7922  491.8539 C   0  0  0  0  0  0  0  0  0  0  0  0
-1248.5031  100.0818  489.6866 C   0  0  0  0  0  0  0  0  0  0  0  0
-1246.3577  100.6757  490.6370 C   0  0  0  0  0  0  0  0  0  0  0  0
-1246.9688   96.3792  492.2188 C   0  0  0  0  0  0  0  0  0  0  0  0
-1247.8396   98.5993  493.0036 C   0  0  0  0  0  0  0  0  0  0  0  0
-1248.7545  101.4271  489.4070 C   0  0  0  0  0  0  0  0  0  0  0  0
-1246.6096  102.0201  490.3584 C   0  0  0  0  0  0  0  0  0  0  0  0
-1245.7905   96.0419  492.8986 C   0  0  0  0  0  0  0  0  0  0  0  0
-1247.8740   95.3645  491.8825 C   0  0  0  0  0  0  0  0  0  0  0  0
-1249.1194   97.9829  493.5591 C   0  0  0  0  0  0  0  0  0  0  0  0
-1247.8027  102.3845  489.7443 C   0  0  0  0  0  0  0  0  0  0  0  0
-1245.5243   94.7130  493.2354 C   0  0  0  0  0  0  0  0  0  0  0  0
-1247.6083   94.0365  492.2225 C   0  0  0  0  0  0  0  0  0  0  0  0
-1248.0060  103.7083  489.4886 O   0  0  0  0  0  0  0  0  0  0  0  0
-1246.4330   93.7113  492.8968 C   0  0  0  0  0  0  0  0  0  0  0  0
  1  2  1  0
  1  3  1  0
  2  4  4  0
  2  5  4  0
  3  6  1  0
  4  7  4  0
  5  8  4  0
  6  9  1  0
  7 10  4  0
 10 11  1  0
 11 12  1  0
 11 13  2  0
 12 14  4  0
 12 15  4  0
 13 16  1  0
 13 17  1  0
 14 18  4  0
 15 19  4  0
 16 20  4  0
 16 21  4  0
 17 22  1  0
 18 23  4  0
 20 24  4  0
 21 25  4  0
 23 26  1  0
 24 27  4  0
  8 10  4  0
 19 23  4  0
 25 27  4  0
M  END
