
     RDKit          3D

 28 30  0  0  0  0  0  0  0  0999 V2000
    4.6619    7.6175    0.6384 Cl  0  0  0  0  0  0  0  0  0  0  0  0
    5.0911    6.3420    1.7114 C   0  0  0  0  0  0  0  0  0  0  0  0
    4.1302    5.7930    2.5533 C   0  0  0  0  0  0  0  0  0  0  0  0
    6.4001    5.8712    1.7416 C   0  0  0  0  0  0  0  0  0  0  0  0
    4.4798    4.7563    3.4232 C   0  0  0  0  0  0  0  0  0  0  0  0
    6.7476    4.8334    2.6122 C   0  0  0  0  0  0  0  0  0  0  0  0
    5.7904    4.2361    3.4521 C   0  0  0  0  0  0  0  0  0  0  0  0
    6.1503    3.1117    4.4494 C   0  0  0  0  0  0  0  0  0  0  0  0
    6.7978    1.9418    3.8148 N   0  0  0  0  0  0  0  0  0  0  0  0
    5.0106    2.7479    5.4130 C   0  0  0  0  0  0  0  0  0  0  0  0
    7.6949    1.2011    4.7169 C   0  0  0  0  0  0  0  0  0  0  0  0
    5.9268    1.0233    3.0779 C   0  0  0  0  0  0  0  0  0  0  0  0
    4.2565    3.7627    6.0271 C   0  0  0  0  0  0  0  0  0  0  0  0
    4.6858    1.4101    5.7044 C   0  0  0  0  0  0  0  0  0  0  0  0
    8.0460   -0.2284    4.2261 C   0  0  0  0  0  0  0  0  0  0  0  0
    6.7464    0.0243    2.2113 C   0  0  0  0  0  0  0  0  0  0  0  0
    3.2213    3.4506    6.9111 C   0  0  0  0  0  0  0  0  0  0  0  0
    3.6483    1.0996    6.5856 C   0  0  0  0  0  0  0  0  0  0  0  0
    8.0571   -0.4110    2.7599 N   0  0  0  0  0  0  0  0  0  0  0  0
    2.9187    2.1202    7.1912 C   0  0  0  0  0  0  0  0  0  0  0  0
    9.1788    0.3526    2.1508 C   0  0  0  0  0  0  0  0  0  0  0  0
   10.3694   -0.5882    1.8527 C   0  0  0  0  0  0  0  0  0  0  0  0
    9.8980   -1.6977    1.0745 O   0  0  0  0  0  0  0  0  0  0  0  0
   11.0131   -1.1155    3.1394 C   0  0  0  0  0  0  0  0  0  0  0  0
   10.4249   -2.3287    3.6096 O   0  0  0  0  0  0  0  0  0  0  0  0
   11.3614   -3.2394    4.1803 C   0  0  0  0  0  0  0  0  0  0  0  0
   12.2269   -3.7882    3.0896 C   0  0  0  0  0  0  0  0  0  0  0  0
   11.7792   -4.1984    1.8947 C   0  0  0  0  0  0  0  0  0  0  0  0
  1  2  1  0
  2  3  4  0
  2  4  4  0
  3  5  4  0
  4  6  4  0
  5  7  4  0
  7  8  1  0
  8  9  1  0
  8 10  1  0
  9 11  1  0
  9 12  1  0
 10 13  4  0
 10 14  4  0
 11 15  1  0
 12 16  1  0
 13 17  4  0
 14 18  4  0
 15 19  1  0
 17 20  4  0
 19 21  1  0
 21 22  1  0
 22 23  1  0
 22 24  1  0
 24 25  1  0
 25 26  1  0
 26 27  1  0
 27 28  2  0
  6  7  4  0
 16 19  1  0
 18 20  4  0
M  END
