
     RDKit          3D

 29 33  0  0  0  0  0  0  0  0999 V2000
   11.8586   -2.6358    4.6156 O   0  0  0  0  0  0  0  0  0  0  0  0
   10.6742   -2.4517    4.3664 C   0  0  0  0  0  0  0  0  0  0  0  0
   10.1017   -1.1903    3.7236 C   0  0  2  0  0  0  0  0  0  0  0  0
    9.5783   -3.4529    4.7041 C   0  0  0  0  0  0  0  0  0  0  0  0
    8.8583   -1.8510    3.0913 C   0  0  1  0  0  0  0  0  0  0  0  0
   10.9606   -0.5401    2.6328 C   0  0  0  0  0  0  0  0  0  0  0  0
    9.9068   -0.2286    4.9039 C   0  0  0  0  0  0  0  0  0  0  0  0
    8.3072   -2.7781    4.1664 C   0  0  0  0  0  0  0  0  0  0  0  0
    7.9253   -0.9601    2.2539 C   0  0  0  0  0  0  0  0  0  0  0  0
   10.1678   -0.1785    1.3608 C   0  0  0  0  0  0  0  0  0  0  0  0
    8.6823    0.2175    1.5884 C   0  0  2  0  0  0  0  0  0  0  0  0
    6.5905   -0.5339    2.8566 C   0  0  0  0  0  0  0  0  0  0  0  0
    8.4659    1.5739    2.2495 C   0  0  0  0  0  0  0  0  0  0  0  0
    6.7036    0.6194    3.8529 C   0  0  0  0  0  0  0  0  0  0  0  0
    7.5260    1.7735    3.2888 C   0  0  0  0  0  0  0  0  0  0  0  0
    9.1774    2.6886    1.7565 C   0  0  0  0  0  0  0  0  0  0  0  0
    5.2943    1.0010    4.3800 C   0  0  0  0  0  0  0  0  0  0  0  0
    7.4072    3.0607    3.8538 C   0  0  0  0  0  0  0  0  0  0  0  0
    9.0145    3.9597    2.3050 C   0  0  0  0  0  0  0  0  0  0  0  0
    4.6594    2.2250    3.6991 C   0  0  0  0  0  0  0  0  0  0  0  0
    8.1318    4.1358    3.3521 C   0  0  0  0  0  0  0  0  0  0  0  0
    4.3657    3.3659    4.6821 C   0  0  0  0  0  0  0  0  0  0  0  0
    7.9826    5.3894    3.8674 O   0  0  0  0  0  0  0  0  0  0  0  0
    4.1441    4.6968    4.0004 C   0  0  0  0  0  0  0  0  0  0  0  0
    4.9323    5.0731    2.9032 C   0  0  0  0  0  0  0  0  0  0  0  0
    3.1568    5.5796    4.4572 C   0  0  0  0  0  0  0  0  0  0  0  0
    4.7409    6.3076    2.2803 C   0  0  0  0  0  0  0  0  0  0  0  0
    2.9682    6.8154    3.8348 C   0  0  0  0  0  0  0  0  0  0  0  0
    3.7600    7.1794    2.7473 C   0  0  0  0  0  0  0  0  0  0  0  0
  1  2  2  0
  2  3  1  0
  2  4  1  0
  3  5  1  0
  3  6  1  0
  3  7  1  1
  4  8  1  0
  5  9  1  0
  6 10  1  0
  9 11  1  0
  9 12  1  0
 11 13  1  0
 12 14  1  0
 13 15  4  0
 13 16  4  0
 14 17  1  0
 15 18  4  0
 16 19  4  0
 17 20  1  0
 18 21  4  0
 20 22  1  0
 21 23  1  0
 22 24  1  0
 24 25  4  0
 24 26  4  0
 25 27  4  0
 26 28  4  0
 27 29  4  0
  5  8  1  1
 11 10  1  1
 14 15  1  0
 19 21  4  0
 28 29  4  0
M  END
