
     RDKit          3D

 29 33  0  0  0  0  0  0  0  0999 V2000
   10.0732   -0.3150   -0.2571 O   0  0  0  0  0  0  0  0  0  0  0  0
    9.4990   -0.3917    0.8209 C   0  0  0  0  0  0  0  0  0  0  0  0
    8.6605    0.7111    1.3313 C   0  0  0  0  0  0  0  0  0  0  0  0
    9.5508   -1.6188    1.6390 C   0  0  0  0  0  0  0  0  0  0  0  0
    8.1480    0.6905    2.5767 C   0  0  0  0  0  0  0  0  0  0  0  0
    9.0561   -1.6309    2.8851 C   0  0  0  0  0  0  0  0  0  0  0  0
    8.4750   -0.4108    3.5999 C   0  0  2  0  0  0  0  0  0  0  0  0
    7.0706    1.6990    2.9215 C   0  0  0  0  0  0  0  0  0  0  0  0
    7.1302   -0.7129    4.3375 C   0  0  2  0  0  0  0  0  0  0  0  0
    9.5934    0.0160    4.5777 C   0  0  0  0  0  0  0  0  0  0  0  0
    6.8871    1.8891    4.4310 C   0  0  2  0  0  0  0  0  0  0  0  0
    6.5533    0.5384    5.1546 C   0  0  1  0  0  0  0  0  0  0  0  0
    7.1144   -1.9874    5.2143 C   0  0  0  0  0  0  0  0  0  0  0  0
    6.0282    3.1330    4.7132 C   0  0  0  0  0  0  0  0  0  0  0  0
    5.0921    0.1366    5.4991 C   0  0  1  0  0  0  0  0  0  0  0  0
    5.7028   -2.3082    5.7244 C   0  0  0  0  0  0  0  0  0  0  0  0
    6.6124    4.4124    4.1010 C   0  0  0  0  0  0  0  0  0  0  0  0
    5.0853   -1.1129    6.4401 C   0  0  2  0  0  0  0  0  0  0  0  0
    4.0682    1.0470    6.1758 C   0  0  0  0  0  0  0  0  0  0  0  0
    5.5784    5.1791    3.3134 C   0  0  0  0  0  0  0  0  0  0  0  0
    3.5931   -1.2285    6.6887 C   0  0  0  0  0  0  0  0  0  0  0  0
    5.7392   -0.9148    7.8236 C   0  0  0  0  0  0  0  0  0  0  0  0
    2.9027    0.1037    6.5147 C   0  0  0  0  0  0  0  0  0  0  0  0
    4.2522    5.2608    3.7570 C   0  0  0  0  0  0  0  0  0  0  0  0
    5.9305    5.8064    2.1095 C   0  0  0  0  0  0  0  0  0  0  0  0
    3.0172   -2.2590    7.0120 O   0  0  0  0  0  0  0  0  0  0  0  0
    3.2988    5.9601    3.0140 C   0  0  0  0  0  0  0  0  0  0  0  0
    4.9767    6.5055    1.3685 C   0  0  0  0  0  0  0  0  0  0  0  0
    3.6611    6.5825    1.8210 C   0  0  0  0  0  0  0  0  0  0  0  0
  1  2  2  0
  2  3  1  0
  2  4  1  0
  3  5  2  0
  4  6  2  0
  5  7  1  0
  5  8  1  0
  7  9  1  0
  7 10  1  1
  8 11  1  0
 12  9  1  0
  9 13  1  1
 11 14  1  6
 12 15  1  0
 13 16  1  0
 14 17  1  0
 15 18  1  0
 15 19  1  1
 17 20  1  0
 18 21  1  0
 18 22  1  1
 19 23  1  0
 20 24  4  0
 20 25  4  0
 21 26  2  0
 24 27  4  0
 25 28  4  0
 27 29  4  0
  6  7  1  0
 12 11  1  6
 16 18  1  0
 21 23  1  0
 28 29  4  0
M  END
