
     RDKit          3D

 27 29  0  0  0  0  0  0  0  0999 V2000
    6.4795    6.7305    2.5900 O   0  0  0  0  0  0  0  0  0  0  0  0
    6.5075    5.3987    2.8938 C   0  0  0  0  0  0  0  0  0  0  0  0
    7.0118    7.1669    1.3372 C   0  0  0  0  0  0  0  0  0  0  0  0
    7.7679    4.9174    3.2563 C   0  0  0  0  0  0  0  0  0  0  0  0
    5.4255    4.5197    2.8746 C   0  0  0  0  0  0  0  0  0  0  0  0
    5.9392    7.1291    0.2403 C   0  0  0  0  0  0  0  0  0  0  0  0
    7.9521    3.5729    3.5882 C   0  0  0  0  0  0  0  0  0  0  0  0
    5.6070    3.1714    3.2073 C   0  0  0  0  0  0  0  0  0  0  0  0
    4.6879    7.7597    0.6634 N   0  0  0  0  0  0  0  0  0  0  0  0
    6.8725    2.6852    3.5558 C   0  0  0  0  0  0  0  0  0  0  0  0
    7.0483    1.2523    3.9181 C   0  0  0  0  0  0  0  0  0  0  0  0
    8.1053    0.4555    3.2451 C   0  0  0  0  0  0  0  0  0  0  0  0
    6.2503    0.6576    4.8484 C   0  0  0  0  0  0  0  0  0  0  0  0
    9.2409    0.0550    3.9611 C   0  0  0  0  0  0  0  0  0  0  0  0
    7.9720    0.0794    1.9004 C   0  0  0  0  0  0  0  0  0  0  0  0
    5.1920    1.4105    5.5695 C   0  0  0  0  0  0  0  0  0  0  0  0
    6.2959   -0.8180    5.2255 C   0  0  0  0  0  0  0  0  0  0  0  0
   10.2349   -0.7001    3.3366 C   0  0  0  0  0  0  0  0  0  0  0  0
    8.9668   -0.6765    1.2752 C   0  0  0  0  0  0  0  0  0  0  0  0
    4.1724    0.7281    6.2466 C   0  0  0  0  0  0  0  0  0  0  0  0
    5.1999    2.8116    5.5845 C   0  0  0  0  0  0  0  0  0  0  0  0
    6.9896   -1.0633    6.5599 C   0  0  0  0  0  0  0  0  0  0  0  0
   10.0910   -1.0583    2.0008 C   0  0  0  0  0  0  0  0  0  0  0  0
    3.1765    1.4354    6.9231 C   0  0  0  0  0  0  0  0  0  0  0  0
    4.2027    3.5175    6.2603 C   0  0  0  0  0  0  0  0  0  0  0  0
   11.0861   -1.7957    1.4308 O   0  0  0  0  0  0  0  0  0  0  0  0
    3.1917    2.8292    6.9288 C   0  0  0  0  0  0  0  0  0  0  0  0
  1  2  1  0
  1  3  1  0
  2  4  4  0
  2  5  4  0
  3  6  1  0
  4  7  4  0
  5  8  4  0
  6  9  1  0
  7 10  4  0
 10 11  1  0
 11 12  1  0
 11 13  2  0
 12 14  4  0
 12 15  4  0
 13 16  1  0
 13 17  1  0
 14 18  4  0
 15 19  4  0
 16 20  4  0
 16 21  4  0
 17 22  1  0
 18 23  4  0
 20 24  4  0
 21 25  4  0
 23 26  1  0
 24 27  4  0
  8 10  4  0
 19 23  4  0
 25 27  4  0
M  END
