
     RDKit          3D

 32 37  0  0  0  0  0  0  0  0999 V2000
    4.8041    4.0047    3.8964 S   0  0  0  0  0  0  0  0  0  0  0  0
    5.5103    5.4024    3.0123 C   0  0  0  0  0  0  0  0  0  0  0  0
    6.1730    2.7382    3.8521 C   0  0  1  0  0  0  0  0  0  0  0  0
    4.7970    6.1831    2.0604 C   0  0  0  0  0  0  0  0  0  0  0  0
    6.8420    5.7182    3.3264 C   0  0  0  0  0  0  0  0  0  0  0  0
    5.7692    1.4234    3.1345 C   0  0  0  0  0  0  0  0  0  0  0  0
    7.4938    3.2851    3.3022 C   0  0  0  0  0  0  0  0  0  0  0  0
    5.4917    7.2220    1.3867 C   0  0  0  0  0  0  0  0  0  0  0  0
    3.4293    6.0034    1.7404 C   0  0  0  0  0  0  0  0  0  0  0  0
    7.5005    6.7528    2.6719 C   0  0  0  0  0  0  0  0  0  0  0  0
    6.9857    0.4674    2.8573 C   0  0  1  0  0  0  0  0  0  0  0  0
    4.5170    0.7295    3.7355 C   0  0  1  0  0  0  0  0  0  0  0  0
    8.6496    2.3127    3.3844 C   0  0  0  0  0  0  0  0  0  0  0  0
    6.8330    7.4887    1.6984 C   0  0  0  0  0  0  0  0  0  0  0  0
    4.8354    7.9935    0.4141 C   0  0  0  0  0  0  0  0  0  0  0  0
    2.7888    6.7808    0.7723 C   0  0  0  0  0  0  0  0  0  0  0  0
    8.3459    0.8266    3.5704 C   0  0  2  0  0  0  0  0  0  0  0  0
    6.6064   -1.0265    2.9437 C   0  0  0  0  0  0  0  0  0  0  0  0
    4.0994   -0.5705    2.9965 C   0  0  1  0  0  0  0  0  0  0  0  0
    4.6381    0.3380    5.2158 C   0  0  0  0  0  0  0  0  0  0  0  0
    9.8979    2.7948    3.2298 C   0  0  0  0  0  0  0  0  0  0  0  0
    3.4949    7.7715    0.1040 C   0  0  0  0  0  0  0  0  0  0  0  0
    9.4953    0.0063    2.9041 C   0  0  0  0  0  0  0  0  0  0  0  0
    8.3349    0.4974    5.0801 C   0  0  0  0  0  0  0  0  0  0  0  0
    5.2534   -1.2995    2.2995 C   0  0  0  0  0  0  0  0  0  0  0  0
    3.5222   -1.4091    4.1332 C   0  0  0  0  0  0  0  0  0  0  0  0
    2.9752   -0.3007    1.9864 C   0  0  0  0  0  0  0  0  0  0  0  0
    3.5385   -0.6818    5.4479 C   0  0  0  0  0  0  0  0  0  0  0  0
   11.0915    1.9172    3.2296 C   0  0  0  0  0  0  0  0  0  0  0  0
   10.8943    0.4289    3.3436 C   0  0  0  0  0  0  0  0  0  0  0  0
    3.0525   -2.5326    3.9947 O   0  0  0  0  0  0  0  0  0  0  0  0
   12.2102    2.4240    3.1739 O   0  0  0  0  0  0  0  0  0  0  0  0
  1  2  1  0
  3  1  1  6
  2  4  4  0
  2  5  4  0
  6  3  1  0
  3  7  1  0
  4  8  4  0
  4  9  4  0
  5 10  4  0
  6 11  1  0
  6 12  1  0
  7 13  1  0
  8 14  4  0
  8 15  4  0
  9 16  4  0
 11 17  1  0
 11 18  1  1
 12 19  1  0
 12 20  1  1
 13 21  2  0
 15 22  4  0
 17 23  1  0
 17 24  1  1
 18 25  1  0
 19 26  1  0
 19 27  1  6
 20 28  1  0
 21 29  1  0
 23 30  1  0
 26 31  2  0
 29 32  2  0
 10 14  4  0
 13 17  1  0
 16 22  4  0
 19 25  1  0
 26 28  1  0
 29 30  1  0
M  END
