
     RDKit          3D

 26 30  0  0  0  0  0  0  0  0999 V2000
    2.9757    5.4075    4.1210 O   0  0  0  0  0  0  0  0  0  0  0  0
    3.5343    6.4419    3.7802 C   0  0  0  0  0  0  0  0  0  0  0  0
    3.3379    7.6622    4.3551 O   0  0  0  0  0  0  0  0  0  0  0  0
    4.5216    6.5526    2.6297 C   0  0  1  0  0  0  0  0  0  0  0  0
    3.0564    7.6061    5.7537 C   0  0  0  0  0  0  0  0  0  0  0  0
    4.4290    7.9784    2.0720 C   0  0  2  0  0  0  0  0  0  0  0  0
    5.9372    6.1570    3.1154 C   0  0  2  0  0  0  0  0  0  0  0  0
    3.2312    8.0948    1.2924 O   0  0  0  0  0  0  0  0  0  0  0  0
    5.6113    8.3899    1.1883 C   0  0  0  0  0  0  0  0  0  0  0  0
    7.0642    6.5892    2.1427 C   0  0  2  0  0  0  0  0  0  0  0  0
    6.0023    4.6422    3.3888 C   0  0  0  0  0  0  0  0  0  0  0  0
    6.5312    7.2213    0.8544 C   0  0  0  0  0  0  0  0  0  0  0  0
    8.0577    5.4561    1.8305 C   0  0  0  0  0  0  0  0  0  0  0  0
    7.4081    4.1566    3.8094 C   0  0  2  0  0  0  0  0  0  0  0  0
    8.4962    4.8739    3.0944 N   0  0  0  0  0  0  0  0  0  0  0  0
    7.5047    2.6671    3.6156 C   0  0  0  0  0  0  0  0  0  0  0  0
    9.7508    4.0996    2.9716 C   0  0  0  0  0  0  0  0  0  0  0  0
    6.6407    1.7405    4.1354 N   0  0  0  0  0  0  0  0  0  0  0  0
    8.4863    1.9851    2.9264 C   0  0  0  0  0  0  0  0  0  0  0  0
    9.6093    2.7195    2.2902 C   0  0  0  0  0  0  0  0  0  0  0  0
    7.0270    0.4717    3.7573 C   0  0  0  0  0  0  0  0  0  0  0  0
    8.1908    0.5989    2.9942 C   0  0  0  0  0  0  0  0  0  0  0  0
    6.4419   -0.7689    4.0388 C   0  0  0  0  0  0  0  0  0  0  0  0
    8.8006   -0.5662    2.4909 C   0  0  0  0  0  0  0  0  0  0  0  0
    7.0648   -1.9107    3.5258 C   0  0  0  0  0  0  0  0  0  0  0  0
    8.2268   -1.8138    2.7633 C   0  0  0  0  0  0  0  0  0  0  0  0
  1  2  2  0
  2  3  1  0
  4  2  1  1
  3  5  1  0
  4  6  1  0
  4  7  1  0
  6  8  1  6
  6  9  1  0
  7 10  1  0
  7 11  1  6
  9 12  1  0
 10 13  1  6
 14 11  1  6
 13 15  1  0
 14 16  1  0
 15 17  1  0
 16 18  4  0
 16 19  4  0
 17 20  1  0
 18 21  4  0
 19 22  4  0
 21 23  4  0
 22 24  4  0
 23 25  4  0
 24 26  4  0
 10 12  1  0
 14 15  1  0
 19 20  1  0
 21 22  4  0
 25 26  4  0
M  END
