
     RDKit          3D

 23 27  0  0  0  0  0  0  0  0999 V2000
   10.1707    1.5306    0.5709 O   0  0  0  0  0  0  0  0  0  0  0  0
    9.7325    2.3207    1.4018 C   0  0  0  0  0  0  0  0  0  0  0  0
    9.1187    3.5927    0.9560 C   0  0  0  0  0  0  0  0  0  0  0  0
    9.8828    2.1109    2.8891 C   0  0  0  0  0  0  0  0  0  0  0  0
    8.4895    4.3761    1.8454 C   0  0  0  0  0  0  0  0  0  0  0  0
    8.6114    2.5487    3.6021 C   0  0  0  0  0  0  0  0  0  0  0  0
    8.2100    4.0186    3.3022 C   0  0  2  0  0  0  0  0  0  0  0  0
    8.1141    5.8061    1.5484 C   0  0  2  0  0  0  0  0  0  0  0  0
    6.6559    4.1718    3.5260 C   0  0  2  0  0  0  0  0  0  0  0  0
    9.0183    5.0198    4.1884 C   0  0  0  0  0  0  0  0  0  0  0  0
    8.9385    6.7238    2.4849 C   0  0  0  0  0  0  0  0  0  0  0  0
    6.5991    5.9931    1.7410 C   0  0  0  0  0  0  0  0  0  0  0  0
    6.1393    5.5996    3.1539 C   0  0  1  0  0  0  0  0  0  0  0  0
    6.1572    3.7281    4.9292 C   0  0  0  0  0  0  0  0  0  0  0  0
    9.7411    6.0014    3.4298 O   0  0  0  0  0  0  0  0  0  0  0  0
    4.6178    5.6042    3.3055 C   0  0  0  0  0  0  0  0  0  0  0  0
    4.6376    3.9088    5.1222 C   0  0  0  0  0  0  0  0  0  0  0  0
    4.1982    5.3265    4.7655 C   0  0  2  0  0  0  0  0  0  0  0  0
    3.8138    6.8376    2.9130 C   0  0  0  0  0  0  0  0  0  0  0  0
    2.7066    5.5619    4.6086 C   0  0  0  0  0  0  0  0  0  0  0  0
    4.6915    6.3390    5.8162 C   0  0  0  0  0  0  0  0  0  0  0  0
    2.4149    6.5157    3.4612 C   0  0  0  0  0  0  0  0  0  0  0  0
    1.8454    5.0726    5.3270 O   0  0  0  0  0  0  0  0  0  0  0  0
  1  2  2  0
  2  3  1  0
  2  4  1  0
  3  5  2  0
  4  6  1  0
  5  7  1  0
  5  8  1  0
  7  9  1  0
  7 10  1  1
  8 11  1  1
  8 12  1  0
  9 13  1  0
  9 14  1  1
 10 15  1  0
 13 16  1  0
 14 17  1  0
 16 18  1  0
 16 19  1  0
 18 20  1  0
 18 21  1  1
 19 22  1  0
 20 23  2  0
  6  7  1  0
 11 15  1  0
 13 12  1  6
 17 18  1  0
 20 22  1  0
M  END
