
     RDKit          3D

 23 25  0  0  0  0  0  0  0  0999 V2000
    3.3517    4.8941    4.8861 O   0  0  0  0  0  0  0  0  0  0  0  0
    4.1120    4.5749    3.9780 C   0  0  0  0  0  0  0  0  0  0  0  0
    4.0794    5.1370    2.7320 O   0  0  0  0  0  0  0  0  0  0  0  0
    5.1469    3.5586    4.0973 C   0  0  0  0  0  0  0  0  0  0  0  0
    3.0606    6.1260    2.5536 C   0  0  0  0  0  0  0  0  0  0  0  0
    4.9007    2.2937    4.5842 N   0  0  0  0  0  0  0  0  0  0  0  0
    6.4935    3.6626    3.7726 C   0  0  0  0  0  0  0  0  0  0  0  0
    3.6337    7.4727    2.9501 C   0  0  0  0  0  0  0  0  0  0  0  0
    6.0342    1.6101    4.5728 N   0  0  0  0  0  0  0  0  0  0  0  0
    6.9898    2.4142    4.0673 N   0  0  0  0  0  0  0  0  0  0  0  0
    7.2815    4.7571    3.2324 C   0  0  0  0  0  0  0  0  0  0  0  0
    8.3545    1.9241    3.9557 C   0  0  0  0  0  0  0  0  0  0  0  0
    7.0544    5.2135    1.9294 C   0  0  0  0  0  0  0  0  0  0  0  0
    8.2658    5.3696    4.0154 C   0  0  0  0  0  0  0  0  0  0  0  0
    8.5892    1.1845    2.6617 C   0  0  0  0  0  0  0  0  0  0  0  0
    7.7980    6.2796    1.4197 C   0  0  0  0  0  0  0  0  0  0  0  0
    9.0071    6.4362    3.5043 C   0  0  0  0  0  0  0  0  0  0  0  0
    9.7161    1.4615    1.8723 C   0  0  0  0  0  0  0  0  0  0  0  0
    7.6776    0.2131    2.2217 C   0  0  0  0  0  0  0  0  0  0  0  0
    8.7718    6.8915    2.2079 C   0  0  0  0  0  0  0  0  0  0  0  0
    9.9296    0.7756    0.6759 C   0  0  0  0  0  0  0  0  0  0  0  0
    7.8942   -0.4719    1.0251 C   0  0  0  0  0  0  0  0  0  0  0  0
    9.0195   -0.1908    0.2531 C   0  0  0  0  0  0  0  0  0  0  0  0
  1  2  2  0
  2  3  1  0
  2  4  1  0
  3  5  1  0
  4  6  4  0
  4  7  4  0
  5  8  1  0
  6  9  4  0
  7 10  4  0
  7 11  1  0
 10 12  1  0
 11 13  4  0
 11 14  4  0
 12 15  1  0
 13 16  4  0
 14 17  4  0
 15 18  4  0
 15 19  4  0
 16 20  4  0
 18 21  4  0
 19 22  4  0
 21 23  4  0
  9 10  4  0
 17 20  4  0
 22 23  4  0
M  END
