
     RDKit          3D

 24 26  0  0  0  0  0  0  0  0999 V2000
    6.3207    6.9130    2.8963 O   0  0  0  0  0  0  0  0  0  0  0  0
    5.5231    6.0466    2.5529 C   0  0  0  0  0  0  0  0  0  0  0  0
    4.7809    6.1216    1.4084 O   0  0  0  0  0  0  0  0  0  0  0  0
    5.2703    4.8324    3.3190 C   0  0  0  0  0  0  0  0  0  0  0  0
    3.5139    6.7697    1.5540 C   0  0  0  0  0  0  0  0  0  0  0  0
    4.0100    4.5192    3.7793 N   0  0  0  0  0  0  0  0  0  0  0  0
    6.1535    3.8337    3.7162 C   0  0  0  0  0  0  0  0  0  0  0  0
    3.7496    8.2674    1.5219 C   0  0  0  0  0  0  0  0  0  0  0  0
    4.0729    3.3735    4.4389 N   0  0  0  0  0  0  0  0  0  0  0  0
    5.3476    2.9440    4.3884 N   0  0  0  0  0  0  0  0  0  0  0  0
    7.5822    3.6566    3.5162 C   0  0  0  0  0  0  0  0  0  0  0  0
    5.7129    1.7052    5.0574 C   0  0  0  0  0  0  0  0  0  0  0  0
    8.4220    4.7690    3.4077 C   0  0  0  0  0  0  0  0  0  0  0  0
    8.1275    2.3723    3.4303 C   0  0  0  0  0  0  0  0  0  0  0  0
    5.9779    0.5862    4.0803 C   0  0  0  0  0  0  0  0  0  0  0  0
    9.7955    4.5974    3.2191 C   0  0  0  0  0  0  0  0  0  0  0  0
    9.5011    2.2019    3.2434 C   0  0  0  0  0  0  0  0  0  0  0  0
    6.8678   -0.4504    4.4013 C   0  0  0  0  0  0  0  0  0  0  0  0
    5.3464    0.5716    2.8275 C   0  0  0  0  0  0  0  0  0  0  0  0
   10.3439    3.3129    3.1242 C   0  0  0  0  0  0  0  0  0  0  0  0
    7.1106   -1.4827    3.4942 C   0  0  0  0  0  0  0  0  0  0  0  0
    5.5907   -0.4626    1.9225 C   0  0  0  0  0  0  0  0  0  0  0  0
   11.8228    3.1286    2.9521 C   0  0  0  0  0  0  0  0  0  0  0  0
    6.4719   -1.4890    2.2561 C   0  0  0  0  0  0  0  0  0  0  0  0
  1  2  2  0
  2  3  1  0
  2  4  1  0
  3  5  1  0
  4  6  4  0
  4  7  4  0
  5  8  1  0
  6  9  4  0
  7 10  4  0
  7 11  1  0
 10 12  1  0
 11 13  4  0
 11 14  4  0
 12 15  1  0
 13 16  4  0
 14 17  4  0
 15 18  4  0
 15 19  4  0
 16 20  4  0
 18 21  4  0
 19 22  4  0
 20 23  1  0
 21 24  4  0
  9 10  4  0
 17 20  4  0
 22 24  4  0
M  END
