
     RDKit          3D

 21 24  0  0  0  0  0  0  0  0999 V2000
    8.3953    6.4349    0.6551 O   0  0  0  0  0  0  0  0  0  0  0  0
    7.6949    5.8869    1.4966 C   0  0  0  0  0  0  0  0  0  0  0  0
    7.9866    4.5425    2.0071 C   0  0  0  0  0  0  0  0  0  0  0  0
    6.5083    6.5609    2.0448 C   0  0  0  0  0  0  0  0  0  0  0  0
    7.1411    3.9874    2.9645 C   0  0  0  0  0  0  0  0  0  0  0  0
    9.0940    3.8366    1.5374 C   0  0  0  0  0  0  0  0  0  0  0  0
    5.7546    5.9420    2.9663 C   0  0  0  0  0  0  0  0  0  0  0  0
    6.0427    4.6670    3.4416 O   0  0  0  0  0  0  0  0  0  0  0  0
    7.3936    2.6939    3.4775 C   0  0  0  0  0  0  0  0  0  0  0  0
    9.3569    2.5603    2.0330 C   0  0  0  0  0  0  0  0  0  0  0  0
    4.5358    6.5518    3.5746 C   0  0  0  0  0  0  0  0  0  0  0  0
    8.5199    1.9783    2.9986 C   0  0  0  0  0  0  0  0  0  0  0  0
    6.5738    2.0785    4.4481 C   0  0  0  0  0  0  0  0  0  0  0  0
    4.0734    7.8366    3.2380 C   0  0  0  0  0  0  0  0  0  0  0  0
    3.7922    5.8354    4.5320 C   0  0  0  0  0  0  0  0  0  0  0  0
    8.7888    0.6924    3.4947 C   0  0  0  0  0  0  0  0  0  0  0  0
    6.8557    0.7993    4.9306 C   0  0  0  0  0  0  0  0  0  0  0  0
    2.9249    8.3779    3.8292 C   0  0  0  0  0  0  0  0  0  0  0  0
    2.6444    6.3742    5.1240 C   0  0  0  0  0  0  0  0  0  0  0  0
    7.9625    0.1071    4.4539 C   0  0  0  0  0  0  0  0  0  0  0  0
    2.2109    7.6467    4.7718 C   0  0  0  0  0  0  0  0  0  0  0  0
  1  2  2  0
  2  3  4  0
  2  4  4  0
  3  5  4  0
  3  6  4  0
  4  7  4  0
  5  8  4  0
  5  9  4  0
  6 10  4  0
  7 11  1  0
  9 12  4  0
  9 13  4  0
 11 14  4  0
 11 15  4  0
 12 16  4  0
 13 17  4  0
 14 18  4  0
 15 19  4  0
 16 20  4  0
 18 21  4  0
  7  8  4  0
 10 12  4  0
 17 20  4  0
 19 21  4  0
M  END
