
     RDKit          3D

 29 33  0  0  0  0  0  0  0  0999 V2000
    1.1114   -0.8103   -0.5868 I   0  0  0  0  0  0  0  0  0  0  0  0
    2.1990   -0.5007    1.1555 C   0  0  0  0  0  0  0  0  0  0  0  0
    3.2122    0.4555    1.1803 C   0  0  0  0  0  0  0  0  0  0  0  0
    1.9183   -1.2566    2.2924 C   0  0  0  0  0  0  0  0  0  0  0  0
    3.9412    0.6618    2.3550 C   0  0  0  0  0  0  0  0  0  0  0  0
    2.6494   -1.0457    3.4657 C   0  0  0  0  0  0  0  0  0  0  0  0
    3.6512   -0.0711    3.5115 C   0  0  0  0  0  0  0  0  0  0  0  0
    4.6139    0.2321    4.9844 S   0  0  0  0  0  0  0  0  0  0  0  0
    6.2523    0.6814    4.2678 C   0  0  2  0  0  0  0  0  0  0  0  0
    6.6321    2.1963    4.2298 C   0  0  1  0  0  0  0  0  0  0  0  0
    6.3936    0.0262    2.8893 C   0  0  0  0  0  0  0  0  0  0  0  0
    7.5876    2.5484    3.0397 C   0  0  2  0  0  0  0  0  0  0  0  0
    5.4943    3.2431    4.3336 C   0  0  1  0  0  0  0  0  0  0  0  0
    7.8021    0.1591    2.3352 C   0  0  0  0  0  0  0  0  0  0  0  0
    8.6089    1.4086    2.7126 C   0  0  1  0  0  0  0  0  0  0  0  0
    8.2074    3.9326    3.3037 C   0  0  0  0  0  0  0  0  0  0  0  0
    6.0184    4.7049    4.4017 C   0  0  1  0  0  0  0  0  0  0  0  0
    4.4758    3.2749    3.1847 C   0  0  0  0  0  0  0  0  0  0  0  0
    8.2593   -0.7699    1.4760 C   0  0  0  0  0  0  0  0  0  0  0  0
    9.4832    1.7892    1.4845 C   0  0  0  0  0  0  0  0  0  0  0  0
    9.5443    1.1193    3.9097 C   0  0  0  0  0  0  0  0  0  0  0  0
    7.1227    5.0084    3.3760 C   0  0  0  0  0  0  0  0  0  0  0  0
    4.7623    5.4721    4.0028 C   0  0  0  0  0  0  0  0  0  0  0  0
    6.4499    5.0821    5.8209 C   0  0  0  0  0  0  0  0  0  0  0  0
    3.7075    4.5734    3.4084 C   0  0  0  0  0  0  0  0  0  0  0  0
    9.5749   -0.6383    0.8079 C   0  0  0  0  0  0  0  0  0  0  0  0
   10.3569    0.6396    0.9855 C   0  0  0  0  0  0  0  0  0  0  0  0
    4.6159    6.6800    4.1445 O   0  0  0  0  0  0  0  0  0  0  0  0
   10.0057   -1.5776    0.1427 O   0  0  0  0  0  0  0  0  0  0  0  0
  1  2  1  0
  2  3  4  0
  2  4  4  0
  3  5  4  0
  4  6  4  0
  5  7  4  0
  7  8  1  0
  9  8  1  6
 10  9  1  6
  9 11  1  0
 10 12  1  0
 10 13  1  0
 11 14  1  0
 12 15  1  0
 12 16  1  1
 13 17  1  0
 13 18  1  6
 14 19  2  0
 15 20  1  0
 15 21  1  1
 16 22  1  0
 17 23  1  0
 17 24  1  1
 18 25  1  0
 19 26  1  0
 20 27  1  0
 23 28  2  0
 26 29  2  0
  6  7  4  0
 14 15  1  0
 17 22  1  0
 23 25  1  0
 26 27  1  0
M  END
