
     RDKit          3D

 22 25  0  0  0  0  0  0  0  0999 V2000
    3.3729    8.3113    2.2528 O   0  0  0  0  0  0  0  0  0  0  0  0
    3.9484    7.2927    2.6306 C   0  0  0  0  0  0  0  0  0  0  0  0
    5.4101    7.1712    2.4248 C   0  0  0  0  0  0  0  0  0  0  0  0
    3.2220    6.1897    3.3491 C   0  0  0  0  0  0  0  0  0  0  0  0
    6.1257    6.1146    2.8575 C   0  0  0  0  0  0  0  0  0  0  0  0
    3.9476    4.8619    3.1920 C   0  0  0  0  0  0  0  0  0  0  0  0
    7.5846    6.0433    2.6493 C   0  0  0  0  0  0  0  0  0  0  0  0
    5.4523    4.9239    3.5777 C   0  0  1  0  0  0  0  0  0  0  0  0
    8.2817    4.9209    2.9108 C   0  0  0  0  0  0  0  0  0  0  0  0
    8.3258    7.2698    2.1705 C   0  0  0  0  0  0  0  0  0  0  0  0
    6.1497    3.5985    3.1141 C   0  0  1  0  0  0  0  0  0  0  0  0
    5.5709    5.1342    5.1061 C   0  0  0  0  0  0  0  0  0  0  0  0
    7.6804    3.6350    3.4034 C   0  0  1  0  0  0  0  0  0  0  0  0
    5.5063    2.2839    3.6282 C   0  0  0  0  0  0  0  0  0  0  0  0
    8.2941    2.3812    2.7696 C   0  0  2  0  0  0  0  0  0  0  0  0
    6.2392    1.0217    3.1300 C   0  0  0  0  0  0  0  0  0  0  0  0
    7.7340    1.0983    3.4274 C   0  0  1  0  0  0  0  0  0  0  0  0
    9.8050    2.1665    2.7771 C   0  0  0  0  0  0  0  0  0  0  0  0
    8.6217    0.0882    2.7243 C   0  0  0  0  0  0  0  0  0  0  0  0
    8.0036    0.9376    4.9361 C   0  0  0  0  0  0  0  0  0  0  0  0
    9.9432    0.7104    2.3063 C   0  0  0  0  0  0  0  0  0  0  0  0
    8.3300   -1.0857    2.5397 O   0  0  0  0  0  0  0  0  0  0  0  0
  1  2  2  0
  2  3  1  0
  2  4  1  0
  3  5  2  0
  4  6  1  0
  5  7  1  0
  5  8  1  0
  7  9  2  0
  7 10  1  0
  8 11  1  0
  8 12  1  1
 13  9  1  6
 11 14  1  1
 13 15  1  0
 14 16  1  0
 15 17  1  0
 15 18  1  1
 17 19  1  0
 17 20  1  1
 18 21  1  0
 19 22  2  0
  6  8  1  0
 11 13  1  0
 16 17  1  0
 19 21  1  0
M  END
