
     RDKit          3D

 21 23  0  0  0  0  0  0  0  0999 V2000
    9.5681   -0.3916    0.1136 O   0  0  0  0  0  0  0  0  0  0  0  0
    9.0216    0.2213    1.0217 C   0  0  0  0  0  0  0  0  0  0  0  0
    9.5568    1.5057    1.5153 C   0  0  0  0  0  0  0  0  0  0  0  0
    7.7939   -0.2875    1.6601 C   0  0  0  0  0  0  0  0  0  0  0  0
    8.9779    2.1746    2.5286 C   0  0  0  0  0  0  0  0  0  0  0  0
    7.2164    0.3755    2.6709 C   0  0  0  0  0  0  0  0  0  0  0  0
    7.7324    1.6782    3.2745 C   0  0  2  0  0  0  0  0  0  0  0  0
    9.5123    3.5200    2.9500 C   0  0  0  0  0  0  0  0  0  0  0  0
    6.6290    2.7972    3.1754 C   0  0  2  0  0  0  0  0  0  0  0  0
    8.1157    1.3516    4.7353 C   0  0  0  0  0  0  0  0  0  0  0  0
    8.4233    4.5790    2.8263 C   0  0  0  0  0  0  0  0  0  0  0  0
    7.1562    4.1926    3.6060 C   0  0  1  0  0  0  0  0  0  0  0  0
    5.3359    2.4851    3.9564 C   0  0  0  0  0  0  0  0  0  0  0  0
    6.0819    5.2782    3.4159 C   0  0  0  0  0  0  0  0  0  0  0  0
    4.2711    3.5677    3.7658 C   0  0  0  0  0  0  0  0  0  0  0  0
    4.7446    4.9854    4.1392 C   0  0  2  0  0  0  0  0  0  0  0  0
    3.7032    6.0433    3.6937 C   0  0  0  0  0  0  0  0  0  0  0  0
    4.9130    5.1347    5.6613 C   0  0  0  0  0  0  0  0  0  0  0  0
    3.0198    5.8761    2.6804 O   0  0  0  0  0  0  0  0  0  0  0  0
    3.5760    7.3189    4.5195 C   0  0  0  0  0  0  0  0  0  0  0  0
    3.2083    8.5258    3.6725 C   0  0  0  0  0  0  0  0  0  0  0  0
  1  2  2  0
  2  3  1  0
  2  4  1  0
  3  5  2  0
  4  6  2  0
  5  7  1  0
  5  8  1  0
  7  9  1  0
  7 10  1  1
  8 11  1  0
  9 12  1  0
  9 13  1  1
 12 14  1  6
 13 15  1  0
 14 16  1  0
 16 17  1  0
 16 18  1  1
 17 19  2  0
 17 20  1  0
 20 21  1  0
  6  7  1  0
 11 12  1  0
 15 16  1  0
M  END
