
     RDKit          3D

 48 53  0  0  0  0  0  0  0  0999 V2000
    7.4333   -4.2732    5.6499 O   0  0  0  0  0  0  0  0  0  0  0  0
    8.0576   -3.5714    6.4414 C   0  0  0  0  0  0  0  0  0  0  0  0
    9.4235   -3.7195    6.6437 N   0  0  0  0  0  0  0  0  0  0  0  0
    7.4261   -2.4605    7.3257 C   0  0  0  0  0  0  0  0  0  0  0  0
   10.4663   -3.1132    5.8007 C   0  0  0  0  0  0  0  0  0  0  0  0
    6.0027   -2.1563    7.0319 N   0  0  0  0  0  0  0  0  0  0  0  0
    7.6367   -2.8096    8.8226 C   0  0  0  0  0  0  0  0  0  0  0  0
   10.3580   -3.7299    4.3943 C   0  0  0  0  0  0  0  0  0  0  0  0
   11.8675   -3.4078    6.3576 C   0  0  0  0  0  0  0  0  0  0  0  0
   10.2523   -1.5964    5.6703 C   0  0  0  0  0  0  0  0  0  0  0  0
    5.1203   -3.2340    7.4982 C   0  0  0  0  0  0  0  0  0  0  0  0
    5.7771   -1.7341    5.6431 C   0  0  0  0  0  0  0  0  0  0  0  0
    6.7484   -3.8774    9.3354 N   0  0  0  0  0  0  0  0  0  0  0  0
    5.3462   -3.5508    8.9978 C   0  0  0  0  0  0  0  0  0  0  0  0
    4.4180   -1.0437    5.3486 C   0  0  0  0  0  0  0  0  0  0  0  0
    6.9331   -4.0470   10.7857 C   0  0  0  0  0  0  0  0  0  0  0  0
    3.3998   -2.0539    5.2528 O   0  0  0  0  0  0  0  0  0  0  0  0
    3.9630    0.0296    6.3611 C   0  0  0  0  0  0  0  0  0  0  0  0
    7.9691   -5.0829   11.1501 C   0  0  0  0  0  0  0  0  0  0  0  0
    4.0919    1.4834    5.8679 C   0  0  0  0  0  0  0  0  0  0  0  0
    9.3159   -4.8836   10.8398 C   0  0  0  0  0  0  0  0  0  0  0  0
    7.6062   -6.2890   11.7675 C   0  0  0  0  0  0  0  0  0  0  0  0
    5.4805    1.8655    5.3659 C   0  0  0  0  0  0  0  0  0  0  0  0
    3.6385    2.4892    6.9558 C   0  0  0  0  0  0  0  0  0  0  0  0
   10.3319   -5.7461   11.0794 N   0  0  0  0  0  0  0  0  0  0  0  0
    8.6208   -7.2171   12.0389 C   0  0  0  0  0  0  0  0  0  0  0  0
    6.4886    1.1771    5.4872 O   0  0  0  0  0  0  0  0  0  0  0  0
    5.5343    3.0955    4.7496 N   0  0  0  0  0  0  0  0  0  0  0  0
    3.6053    3.9406    6.5332 C   0  0  0  0  0  0  0  0  0  0  0  0
    9.9239   -6.8809   11.6731 C   0  0  0  0  0  0  0  0  0  0  0  0
    8.6933   -8.5058   12.6266 C   0  0  0  0  0  0  0  0  0  0  0  0
    5.9443    3.2274    3.3633 C   0  0  0  0  0  0  0  0  0  0  0  0
    2.5561    4.4243    5.7390 C   0  0  0  0  0  0  0  0  0  0  0  0
    4.6110    4.8293    6.9364 C   0  0  0  0  0  0  0  0  0  0  0  0
   10.7718   -7.8964   12.0078 O   0  0  0  0  0  0  0  0  0  0  0  0
   10.0195   -8.8707   12.5855 C   0  0  0  0  0  0  0  0  0  0  0  0
    7.4316    3.0630    3.2448 C   0  0  0  0  0  0  0  0  0  0  0  0
    5.7536    4.6540    2.7573 C   0  0  1  0  0  0  0  0  0  0  0  0
    2.5095    5.7692    5.3665 C   0  0  0  0  0  0  0  0  0  0  0  0
    4.5606    6.1740    6.5661 C   0  0  0  0  0  0  0  0  0  0  0  0
    8.0615    4.3018    3.0706 C   0  0  0  0  0  0  0  0  0  0  0  0
    8.1698    1.8922    3.3217 C   0  0  0  0  0  0  0  0  0  0  0  0
    4.6236    5.3663    3.2570 O   0  0  0  0  0  0  0  0  0  0  0  0
    7.0622    5.4180    3.0417 C   0  0  0  0  0  0  0  0  0  0  0  0
    3.5105    6.6440    5.7817 C   0  0  0  0  0  0  0  0  0  0  0  0
    9.4413    4.3952    2.9752 C   0  0  0  0  0  0  0  0  0  0  0  0
    9.5601    1.9766    3.2134 C   0  0  0  0  0  0  0  0  0  0  0  0
   10.1899    3.2196    3.0411 C   0  0  0  0  0  0  0  0  0  0  0  0
  1  2  2  0
  2  3  1  0
  4  2  1  0
  3  5  1  0
  4  6  1  0
  4  7  1  0
  5  8  1  0
  5  9  1  0
  5 10  1  0
  6 11  1  0
  6 12  1  0
  7 13  1  0
 11 14  1  0
 12 15  1  0
 13 16  1  0
 15 17  1  0
 15 18  1  0
 16 19  1  0
 20 18  1  0
 19 21  4  0
 19 22  4  0
 20 23  1  0
 20 24  1  0
 21 25  4  0
 22 26  4  0
 23 27  2  0
 23 28  1  0
 24 29  1  0
 25 30  4  0
 26 31  4  0
 32 28  1  0
 29 33  4  0
 29 34  4  0
 30 35  4  0
 31 36  4  0
 32 37  1  0
 32 38  1  0
 33 39  4  0
 34 40  4  0
 37 41  4  0
 37 42  4  0
 38 43  1  1
 38 44  1  0
 39 45  4  0
 41 46  4  0
 42 47  4  0
 46 48  4  0
 13 14  1  0
 26 30  4  0
 35 36  4  0
 40 45  4  0
 41 44  1  0
 47 48  4  0
M  END
