
     RDKit          3D

 20 22  0  0  0  0  0  0  0  0999 V2000
    9.1359    2.7050    1.4236 N   0  0  0  0  0  0  0  0  0  0  0  0
    9.6146    1.5042    1.1253 N   0  0  0  0  0  0  0  0  0  0  0  0
    9.4803    2.9704    2.6962 N   0  0  0  0  0  0  0  0  0  0  0  0
   10.2551    1.0188    2.2299 C   0  0  0  0  0  0  0  0  0  0  0  0
   10.1748    1.9367    3.2483 C   0  0  0  0  0  0  0  0  0  0  0  0
    9.0924    4.2228    3.3147 C   0  0  0  0  0  0  0  0  0  0  0  0
    7.5654    4.3667    3.4655 C   0  0  0  0  0  0  0  0  0  0  0  0
    6.8980    3.0036    3.6367 C   0  0  0  0  0  0  0  0  0  0  0  0
    6.9412    5.1348    2.2756 C   0  0  0  0  0  0  0  0  0  0  0  0
    5.6032    2.8028    3.1331 C   0  0  0  0  0  0  0  0  0  0  0  0
    7.5260    1.9465    4.3142 C   0  0  0  0  0  0  0  0  0  0  0  0
    5.7082    5.9314    2.6352 C   0  0  0  0  0  0  0  0  0  0  0  0
    4.9584    1.5755    3.2933 C   0  0  0  0  0  0  0  0  0  0  0  0
    6.8791    0.7189    4.4714 C   0  0  0  0  0  0  0  0  0  0  0  0
    5.1719    5.8669    3.9289 C   0  0  0  0  0  0  0  0  0  0  0  0
    5.0844    6.7490    1.6828 C   0  0  0  0  0  0  0  0  0  0  0  0
    5.5968    0.5334    3.9605 C   0  0  0  0  0  0  0  0  0  0  0  0
    4.0281    6.5961    4.2583 C   0  0  0  0  0  0  0  0  0  0  0  0
    3.9402    7.4762    2.0142 C   0  0  0  0  0  0  0  0  0  0  0  0
    3.4116    7.3986    3.3008 C   0  0  0  0  0  0  0  0  0  0  0  0
  1  2  4  0
  1  3  4  0
  2  4  4  0
  3  5  4  0
  3  6  1  0
  6  7  1  0
  7  8  1  0
  7  9  1  0
  8 10  4  0
  8 11  4  0
  9 12  1  0
 10 13  4  0
 11 14  4  0
 12 15  4  0
 12 16  4  0
 13 17  4  0
 15 18  4  0
 16 19  4  0
 18 20  4  0
  4  5  4  0
 14 17  4  0
 19 20  4  0
M  END
