
     RDKit          3D

 22 25  0  0  0  0  0  0  0  0999 V2000
    2.7512    6.5607    1.6513 Cl  0  0  0  0  0  0  0  0  0  0  0  0
    4.2521    6.5015    2.6178 C   0  0  2  0  0  0  0  0  0  0  0  0
    5.2712    7.4762    2.0615 C   0  0  0  0  0  0  0  0  0  0  0  0
    4.8078    5.0818    2.5976 C   0  0  0  0  0  0  0  0  0  0  0  0
    4.9957    8.5095    1.4555 O   0  0  0  0  0  0  0  0  0  0  0  0
    6.6990    7.2076    2.3682 C   0  0  0  0  0  0  0  0  0  0  0  0
    6.1554    4.9339    3.3654 C   0  0  2  0  0  0  0  0  0  0  0  0
    7.0978    6.0863    2.9949 C   0  0  0  0  0  0  0  0  0  0  0  0
    6.8156    3.5625    2.9496 C   0  0  1  0  0  0  0  0  0  0  0  0
    5.8794    5.0049    4.8843 C   0  0  0  0  0  0  0  0  0  0  0  0
    8.5488    5.9332    3.3898 C   0  0  0  0  0  0  0  0  0  0  0  0
    8.2922    3.4252    3.4443 C   0  0  2  0  0  0  0  0  0  0  0  0
    5.9599    2.3146    3.3102 C   0  0  0  0  0  0  0  0  0  0  0  0
    9.1306    4.6020    2.9316 C   0  0  0  0  0  0  0  0  0  0  0  0
    8.8420    2.0830    2.9538 C   0  0  2  0  0  0  0  0  0  0  0  0
    6.6271    0.9744    2.9490 C   0  0  0  0  0  0  0  0  0  0  0  0
    8.0384    0.8954    3.5210 C   0  0  1  0  0  0  0  0  0  0  0  0
   10.2964    1.7114    3.2227 C   0  0  0  0  0  0  0  0  0  0  0  0
    8.9175   -0.2305    3.0072 C   0  0  0  0  0  0  0  0  0  0  0  0
    8.0154    0.7693    5.0555 C   0  0  0  0  0  0  0  0  0  0  0  0
   10.3508    0.2329    2.8094 C   0  0  0  0  0  0  0  0  0  0  0  0
    8.5346   -1.3745    2.8025 O   0  0  0  0  0  0  0  0  0  0  0  0
  2  1  1  6
  2  3  1  0
  2  4  1  0
  3  5  2  0
  3  6  1  0
  4  7  1  0
  6  8  2  0
  7  9  1  0
  7 10  1  1
  8 11  1  0
  9 12  1  0
  9 13  1  1
 11 14  1  0
 12 15  1  0
 13 16  1  0
 15 17  1  0
 15 18  1  1
 17 19  1  0
 17 20  1  1
 18 21  1  0
 19 22  2  0
  7  8  1  0
 12 14  1  6
 16 17  1  0
 19 21  1  0
M  END
