
     RDKit          3D

 23 26  0  0  0  0  0  0  0  0999 V2000
    4.7619    6.1625    5.5576 F   0  0  0  0  0  0  0  0  0  0  0  0
    5.4612    5.0818    5.1396 C   0  0  0  0  0  0  0  0  0  0  0  0
    4.8720    4.0148    5.7363 F   0  0  0  0  0  0  0  0  0  0  0  0
    5.4445    4.9335    3.5882 C   0  0  1  0  0  0  0  0  0  0  0  0
    6.0816    6.1453    2.8868 C   0  0  0  0  0  0  0  0  0  0  0  0
    6.2359    3.6614    3.1161 C   0  0  1  0  0  0  0  0  0  0  0  0
    3.9649    4.8451    3.1128 C   0  0  0  0  0  0  0  0  0  0  0  0
    5.3804    7.2437    2.5509 C   0  0  0  0  0  0  0  0  0  0  0  0
    7.5219    6.0377    2.4341 C   0  0  0  0  0  0  0  0  0  0  0  0
    7.7447    3.7171    3.5313 C   0  0  2  0  0  0  0  0  0  0  0  0
    5.6025    2.2977    3.4946 C   0  0  0  0  0  0  0  0  0  0  0  0
    3.1696    6.1402    3.2768 C   0  0  0  0  0  0  0  0  0  0  0  0
    3.9226    7.3543    2.7901 C   0  0  0  0  0  0  0  0  0  0  0  0
    8.3884    5.0875    3.2536 C   0  0  0  0  0  0  0  0  0  0  0  0
    8.4491    2.5331    2.8575 C   0  0  2  0  0  0  0  0  0  0  0  0
    6.4093    1.0978    2.9558 C   0  0  0  0  0  0  0  0  0  0  0  0
    3.3594    8.4259    2.5775 O   0  0  0  0  0  0  0  0  0  0  0  0
    7.8769    1.1869    3.3665 C   0  0  1  0  0  0  0  0  0  0  0  0
    9.9597    2.3523    2.9736 C   0  0  0  0  0  0  0  0  0  0  0  0
    8.8436    0.2594    2.6539 C   0  0  0  0  0  0  0  0  0  0  0  0
    8.0404    0.9037    4.8731 C   0  0  0  0  0  0  0  0  0  0  0  0
   10.1786    0.9406    2.4054 C   0  0  0  0  0  0  0  0  0  0  0  0
    8.5958   -0.8971    2.3411 O   0  0  0  0  0  0  0  0  0  0  0  0
  1  2  1  0
  2  3  1  0
  4  2  1  1
  4  5  1  0
  4  6  1  0
  4  7  1  0
  5  8  2  0
  5  9  1  0
  6 10  1  0
  6 11  1  1
  7 12  1  0
  8 13  1  0
  9 14  1  0
 10 15  1  0
 11 16  1  0
 13 17  2  0
 15 18  1  0
 15 19  1  1
 18 20  1  0
 18 21  1  1
 19 22  1  0
 20 23  2  0
 10 14  1  6
 12 13  1  0
 16 18  1  0
 20 22  1  0
M  END
