
     RDKit          3D

 13 14  0  0  0  0  0  0  0  0999 V2000
    2.9935    6.1452    2.3482 S   0  0  0  0  0  0  0  0  0  0  0  0
    3.9157    7.3750    1.3860 C   0  0  0  0  0  0  0  0  0  0  0  0
    5.3536    7.0232    1.3206 C   0  0  0  0  0  0  0  0  0  0  0  0
    5.7206    5.8461    1.9032 O   0  0  0  0  0  0  0  0  0  0  0  0
    6.4589    7.6421    0.7779 C   0  0  0  0  0  0  0  0  0  0  0  0
    7.0708    5.7048    1.7400 C   0  0  0  0  0  0  0  0  0  0  0  0
    7.5620    6.7957    1.0485 C   0  0  0  0  0  0  0  0  0  0  0  0
    7.6655    4.4991    2.3021 C   0  0  0  0  0  0  0  0  0  0  0  0
    6.9940    3.7080    3.2331 C   0  0  0  0  0  0  0  0  0  0  0  0
    8.9462    4.0744    1.9324 C   0  0  0  0  0  0  0  0  0  0  0  0
    7.4937    2.5754    3.7915 N   0  0  0  0  0  0  0  0  0  0  0  0
    9.4890    2.9154    2.4878 C   0  0  0  0  0  0  0  0  0  0  0  0
    8.7314    2.2069    3.4042 C   0  0  0  0  0  0  0  0  0  0  0  0
  1  2  1  0
  2  3  1  0
  3  4  4  0
  3  5  4  0
  4  6  4  0
  5  7  4  0
  6  8  1  0
  8  9  4  0
  8 10  4  0
  9 11  4  0
 10 12  4  0
 11 13  4  0
  6  7  4  0
 12 13  4  0
M  END
