
     RDKit          3D

 25 28  0  0  0  0  0  0  0  0999 V2000
    3.1100    7.2223    1.8692 O   0  0  0  0  0  0  0  0  0  0  0  0
    3.7841    6.3479    2.3992 C   0  0  0  0  0  0  0  0  0  0  0  0
    5.2536    6.4599    2.4861 C   0  0  0  0  0  0  0  0  0  0  0  0
    3.1614    5.1322    2.9466 C   0  0  0  0  0  0  0  0  0  0  0  0
    6.0163    5.5476    3.1189 C   0  0  0  0  0  0  0  0  0  0  0  0
    3.8980    4.2187    3.5898 C   0  0  0  0  0  0  0  0  0  0  0  0
    7.4899    5.6215    3.0870 C   0  0  0  0  0  0  0  0  0  0  0  0
    5.3964    4.3285    3.8480 C   0  0  1  0  0  0  0  0  0  0  0  0
    8.2320    4.5190    3.3147 C   0  0  0  0  0  0  0  0  0  0  0  0
    8.1927    6.9397    2.7983 C   0  0  0  0  0  0  0  0  0  0  0  0
    6.1508    3.0649    3.3191 C   0  0  1  0  0  0  0  0  0  0  0  0
    5.5362    4.5144    5.3773 C   0  0  0  0  0  0  0  0  0  0  0  0
    7.6751    3.1618    3.6481 C   0  0  1  0  0  0  0  0  0  0  0  0
    8.1615    7.3748    1.3249 C   0  0  0  0  0  0  0  0  0  0  0  0
    5.5824    1.6851    3.7435 C   0  0  0  0  0  0  0  0  0  0  0  0
    8.3687    2.0018    2.9272 C   0  0  2  0  0  0  0  0  0  0  0  0
    6.9644    8.2408    0.9209 C   0  0  0  0  0  0  0  0  0  0  0  0
    6.3902    0.5039    3.1644 C   0  0  0  0  0  0  0  0  0  0  0  0
    7.8780    0.6416    3.4776 C   0  0  1  0  0  0  0  0  0  0  0  0
    9.8888    1.8742    2.9362 C   0  0  0  0  0  0  0  0  0  0  0  0
    6.7172    9.4112    1.8600 C   0  0  0  0  0  0  0  0  0  0  0  0
    8.8263   -0.2574    2.7059 C   0  0  0  0  0  0  0  0  0  0  0  0
    8.1492    0.3757    4.9714 C   0  0  0  0  0  0  0  0  0  0  0  0
   10.1134    0.4699    2.3538 C   0  0  0  0  0  0  0  0  0  0  0  0
    8.6031   -1.4273    2.4256 O   0  0  0  0  0  0  0  0  0  0  0  0
  1  2  2  0
  2  3  1  0
  2  4  1  0
  3  5  2  0
  4  6  2  0
  5  7  1  0
  5  8  1  0
  7  9  2  0
  7 10  1  0
  8 11  1  0
  8 12  1  1
 13  9  1  6
 10 14  1  0
 11 15  1  1
 13 16  1  0
 14 17  1  0
 15 18  1  0
 16 19  1  0
 16 20  1  1
 17 21  1  0
 19 22  1  0
 19 23  1  1
 20 24  1  0
 22 25  2  0
  6  8  1  0
 11 13  1  0
 18 19  1  0
 22 24  1  0
M  END
