
     RDKit          3D

 22 25  0  0  0  0  0  0  0  0999 V2000
    6.1565    8.3155    1.9586 F   0  0  0  0  0  0  0  0  0  0  0  0
    5.5066    7.2489    2.4681 C   0  0  0  0  0  0  0  0  0  0  0  0
    4.0271    7.3515    2.4764 C   0  0  0  0  0  0  0  0  0  0  0  0
    6.1730    6.2053    2.9886 C   0  0  0  0  0  0  0  0  0  0  0  0
    3.4520    8.3051    1.9567 O   0  0  0  0  0  0  0  0  0  0  0  0
    3.2710    6.2813    3.2206 C   0  0  0  0  0  0  0  0  0  0  0  0
    5.4706    4.9680    3.5612 C   0  0  1  0  0  0  0  0  0  0  0  0
    7.6807    6.2296    3.0562 C   0  0  0  0  0  0  0  0  0  0  0  0
    3.9816    4.9397    3.1006 C   0  0  0  0  0  0  0  0  0  0  0  0
    6.1804    3.6658    3.0243 C   0  0  1  0  0  0  0  0  0  0  0  0
    5.5162    5.0586    5.1031 C   0  0  0  0  0  0  0  0  0  0  0  0
    8.3005    4.9557    2.4951 C   0  0  0  0  0  0  0  0  0  0  0  0
    7.7343    3.7110    3.1885 C   0  0  2  0  0  0  0  0  0  0  0  0
    5.5726    2.3434    3.5730 C   0  0  0  0  0  0  0  0  0  0  0  0
    8.3184    2.4227    2.6025 C   0  0  2  0  0  0  0  0  0  0  0  0
    6.2976    1.0747    3.0871 C   0  0  0  0  0  0  0  0  0  0  0  0
    7.7982    1.1726    3.3404 C   0  0  1  0  0  0  0  0  0  0  0  0
    9.8297    2.2246    2.5535 C   0  0  0  0  0  0  0  0  0  0  0  0
    8.6711    0.1352    2.6577 C   0  0  0  0  0  0  0  0  0  0  0  0
    8.1193    1.0959    4.8444 C   0  0  0  0  0  0  0  0  0  0  0  0
    9.9656    0.7483    2.1511 C   0  0  0  0  0  0  0  0  0  0  0  0
    8.3877   -1.0502    2.5492 O   0  0  0  0  0  0  0  0  0  0  0  0
  1  2  1  0
  2  3  1  0
  2  4  2  0
  3  5  2  0
  3  6  1  0
  4  7  1  0
  4  8  1  0
  6  9  1  0
  7 10  1  0
  7 11  1  1
  8 12  1  0
 10 13  1  0
 10 14  1  1
 13 15  1  0
 14 16  1  0
 15 17  1  0
 15 18  1  1
 17 19  1  0
 17 20  1  1
 18 21  1  0
 19 22  2  0
  7  9  1  0
 13 12  1  6
 16 17  1  0
 19 21  1  0
M  END
