
     RDKit          3D

 31 35  0  0  0  0  0  0  0  0999 V2000
    3.0829    6.7031    5.8658 F   0  0  0  0  0  0  0  0  0  0  0  0
    3.5408    5.6376    5.1960 C   0  0  0  0  0  0  0  0  0  0  0  0
    3.8200    5.7491    3.8406 C   0  0  0  0  0  0  0  0  0  0  0  0
    3.7321    4.4366    5.8656 C   0  0  0  0  0  0  0  0  0  0  0  0
    4.2956    4.6368    3.1433 C   0  0  0  0  0  0  0  0  0  0  0  0
    4.2106    3.3230    5.1697 C   0  0  0  0  0  0  0  0  0  0  0  0
    4.5028    3.4059    3.7967 C   0  0  0  0  0  0  0  0  0  0  0  0
    5.0080    2.2429    2.9626 C   0  0  0  0  0  0  0  0  0  0  0  0
    4.7588    0.9195    3.5146 N   0  0  0  0  0  0  0  0  0  0  0  0
    5.5009    0.2806    4.4911 C   0  0  0  0  0  0  0  0  0  0  0  0
    3.8550    0.0109    2.9989 C   0  0  0  0  0  0  0  0  0  0  0  0
    5.1463   -0.9818    4.5846 N   0  0  0  0  0  0  0  0  0  0  0  0
    6.5167    0.8978    5.1645 N   0  0  0  0  0  0  0  0  0  0  0  0
    4.1203   -1.1607    3.6972 C   0  0  0  0  0  0  0  0  0  0  0  0
    2.8641    0.0948    2.0112 C   0  0  0  0  0  0  0  0  0  0  0  0
    7.5723    0.0419    5.7323 C   0  0  0  0  0  0  0  0  0  0  0  0
    7.0328    2.1357    4.5445 C   0  0  0  0  0  0  0  0  0  0  0  0
    3.3707   -2.3140    3.4220 C   0  0  0  0  0  0  0  0  0  0  0  0
    2.1232   -1.0642    1.7526 C   0  0  0  0  0  0  0  0  0  0  0  0
    8.6435   -0.3023    4.6993 C   0  0  0  0  0  0  0  0  0  0  0  0
    8.1076    1.8588    3.4928 C   0  0  0  0  0  0  0  0  0  0  0  0
    2.3698   -2.2513    2.4450 C   0  0  0  0  0  0  0  0  0  0  0  0
    9.2112    0.9848    4.0961 C   0  0  0  0  0  0  0  0  0  0  0  0
   10.3525    0.7636    3.1882 N   0  0  0  0  0  0  0  0  0  0  0  0
   11.2472   -0.2771    3.4103 C   0  0  0  0  0  0  0  0  0  0  0  0
   10.9372    1.9341    2.5490 C   0  0  0  0  0  0  0  0  0  0  0  0
   12.2724   -0.0980    4.2536 N   0  0  0  0  0  0  0  0  0  0  0  0
   11.0503   -1.4515    2.7803 N   0  0  0  0  0  0  0  0  0  0  0  0
   13.1165   -1.1226    4.4705 C   0  0  0  0  0  0  0  0  0  0  0  0
   11.9150   -2.4552    3.0244 C   0  0  0  0  0  0  0  0  0  0  0  0
   12.9841   -2.3462    3.8731 C   0  0  0  0  0  0  0  0  0  0  0  0
  1  2  1  0
  2  3  4  0
  2  4  4  0
  3  5  4  0
  4  6  4  0
  5  7  4  0
  7  8  1  0
  8  9  1  0
  9 10  4  0
  9 11  4  0
 10 12  4  0
 10 13  1  0
 11 14  4  0
 11 15  4  0
 13 16  1  0
 13 17  1  0
 14 18  4  0
 15 19  4  0
 16 20  1  0
 17 21  1  0
 18 22  4  0
 20 23  1  0
 23 24  1  0
 24 25  1  0
 24 26  1  0
 25 27  4  0
 25 28  4  0
 27 29  4  0
 28 30  4  0
 29 31  4  0
  6  7  4  0
 12 14  4  0
 19 22  4  0
 21 23  1  0
 30 31  4  0
M  END
