
     RDKit          3D

 29 32  0  0  0  0  0  0  0  0999 V2000
    6.3788   -0.6770    3.8948 O   0  0  0  0  0  0  0  0  0  0  0  0
    7.0802   -0.0254    3.1395 C   0  0  0  0  0  0  0  0  0  0  0  0
    6.8168    1.2157    2.6601 O   0  0  0  0  0  0  0  0  0  0  0  0
    8.3656   -0.5221    2.5834 C   0  0  0  0  0  0  0  0  0  0  0  0
    6.8720    2.2880    3.6229 C   0  0  1  0  0  0  0  0  0  0  0  0
    9.3075   -1.2020    3.3678 C   0  0  0  0  0  0  0  0  0  0  0  0
    8.6233   -0.3113    1.2226 C   0  0  0  0  0  0  0  0  0  0  0  0
    8.1632    3.0861    3.4827 C   0  0  0  0  0  0  0  0  0  0  0  0
    5.6043    3.1894    3.4868 C   0  0  0  0  0  0  0  0  0  0  0  0
   10.4993   -1.6535    2.7961 C   0  0  0  0  0  0  0  0  0  0  0  0
    9.8161   -0.7633    0.6553 C   0  0  0  0  0  0  0  0  0  0  0  0
    9.4025    2.4606    3.2758 C   0  0  0  0  0  0  0  0  0  0  0  0
    8.1199    4.4884    3.5408 C   0  0  0  0  0  0  0  0  0  0  0  0
    4.9626    3.5698    4.8232 C   0  0  0  0  0  0  0  0  0  0  0  0
    5.8896    4.4624    2.6648 C   0  0  0  0  0  0  0  0  0  0  0  0
   10.7530   -1.4320    1.4425 C   0  0  0  0  0  0  0  0  0  0  0  0
   10.5660    3.2174    3.1276 C   0  0  0  0  0  0  0  0  0  0  0  0
    9.2851    5.2432    3.3951 C   0  0  0  0  0  0  0  0  0  0  0  0
    5.3165    4.7810    5.4398 C   0  0  0  0  0  0  0  0  0  0  0  0
    4.0172    2.7480    5.4576 C   0  0  0  0  0  0  0  0  0  0  0  0
    4.8840    5.4875    2.8437 N   0  0  0  0  0  0  0  0  0  0  0  0
   10.5070    4.6078    3.1871 C   0  0  0  0  0  0  0  0  0  0  0  0
    4.7447    5.1562    6.6567 C   0  0  0  0  0  0  0  0  0  0  0  0
    3.4480    3.1246    6.6757 C   0  0  0  0  0  0  0  0  0  0  0  0
    5.2405    6.7662    3.0364 N   0  0  0  0  0  0  0  0  0  0  0  0
    3.5301    5.3380    2.8706 C   0  0  0  0  0  0  0  0  0  0  0  0
    3.8124    4.3274    7.2751 C   0  0  0  0  0  0  0  0  0  0  0  0
    4.1261    7.4722    3.1748 N   0  0  0  0  0  0  0  0  0  0  0  0
    3.0677    6.6147    3.0786 C   0  0  0  0  0  0  0  0  0  0  0  0
  1  2  2  0
  2  3  1  0
  2  4  1  0
  5  3  1  6
  4  6  4  0
  4  7  4  0
  5  8  1  0
  5  9  1  0
  6 10  4  0
  7 11  4  0
  8 12  4  0
  8 13  4  0
  9 14  1  0
  9 15  1  0
 10 16  4  0
 12 17  4  0
 13 18  4  0
 14 19  4  0
 14 20  4  0
 15 21  1  0
 17 22  4  0
 19 23  4  0
 20 24  4  0
 21 25  4  0
 21 26  4  0
 23 27  4  0
 25 28  4  0
 26 29  4  0
 11 16  4  0
 18 22  4  0
 24 27  4  0
 28 29  4  0
M  END
