
     RDKit          3D

 30 34  0  0  0  0  0  0  0  0999 V2000
   10.5115    0.8612   -0.1930 O   0  0  0  0  0  0  0  0  0  0  0  0
    9.9462    0.6027    0.8673 C   0  0  0  0  0  0  0  0  0  0  0  0
    9.0067    1.5896    1.4446 C   0  0  0  0  0  0  0  0  0  0  0  0
   10.2280   -0.6605    1.6363 C   0  0  0  0  0  0  0  0  0  0  0  0
    8.3835    1.3757    2.6164 C   0  0  0  0  0  0  0  0  0  0  0  0
    9.0465   -1.0461    2.5174 C   0  0  0  0  0  0  0  0  0  0  0  0
    7.5063    2.4038    3.1486 C   0  0  0  0  0  0  0  0  0  0  0  0
    8.5572    0.1031    3.4445 C   0  0  2  0  0  0  0  0  0  0  0  0
    6.6964    2.2537    4.2155 C   0  0  0  0  0  0  0  0  0  0  0  0
    7.1626   -0.2648    4.0549 C   0  0  2  0  0  0  0  0  0  0  0  0
    9.6184    0.3529    4.5413 C   0  0  0  0  0  0  0  0  0  0  0  0
    6.5508    0.9024    4.9293 C   0  0  2  0  0  0  0  0  0  0  0  0
    5.9844    3.4525    4.8256 C   0  0  0  0  0  0  0  0  0  0  0  0
    7.1390   -1.6266    4.7950 C   0  0  0  0  0  0  0  0  0  0  0  0
    5.1194    0.4330    5.3126 C   0  0  1  0  0  0  0  0  0  0  0  0
    6.4896    4.8564    4.4449 C   0  0  0  0  0  0  0  0  0  0  0  0
    5.7482   -1.9928    5.3256 C   0  0  0  0  0  0  0  0  0  0  0  0
    5.1746   -0.8635    6.1697 C   0  0  2  0  0  0  0  0  0  0  0  0
    4.1361    1.3056    6.0963 C   0  0  0  0  0  0  0  0  0  0  0  0
    5.6056    5.4938    3.3994 C   0  0  0  0  0  0  0  0  0  0  0  0
    3.7023   -1.0005    6.5054 C   0  0  0  0  0  0  0  0  0  0  0  0
    5.9158   -0.7459    7.5162 C   0  0  0  0  0  0  0  0  0  0  0  0
    3.0030    0.3387    6.4706 C   0  0  0  0  0  0  0  0  0  0  0  0
    4.2298    5.6278    3.6158 C   0  0  0  0  0  0  0  0  0  0  0  0
    6.1396    5.9123    2.1754 C   0  0  0  0  0  0  0  0  0  0  0  0
    3.1487   -2.0527    6.7955 O   0  0  0  0  0  0  0  0  0  0  0  0
    3.4105    6.1931    2.6336 C   0  0  0  0  0  0  0  0  0  0  0  0
    5.3136    6.4757    1.1980 C   0  0  0  0  0  0  0  0  0  0  0  0
    3.9518    6.6688    1.4376 C   0  0  0  0  0  0  0  0  0  0  0  0
    3.1118    7.1217    0.4134 N   0  0  0  0  0  0  0  0  0  0  0  0
  1  2  2  0
  2  3  1  0
  2  4  1  0
  3  5  2  0
  4  6  1  0
  5  7  1  0
  5  8  1  0
  7  9  2  0
  8 10  1  0
  8 11  1  1
 12  9  1  6
  9 13  1  0
 10 14  1  1
 12 15  1  0
 13 16  1  0
 14 17  1  0
 15 18  1  0
 15 19  1  1
 16 20  1  0
 18 21  1  0
 18 22  1  1
 19 23  1  0
 20 24  4  0
 20 25  4  0
 21 26  2  0
 24 27  4  0
 25 28  4  0
 27 29  4  0
 29 30  1  0
  6  8  1  0
 10 12  1  0
 17 18  1  0
 21 23  1  0
 28 29  4  0
M  END
