
     RDKit          3D

 16 18  0  0  0  0  0  0  0  0999 V2000
    4.6636    8.0078    1.2934 O   0  0  0  0  0  0  0  0  0  0  0  0
    5.0510    6.8307    1.8783 C   0  0  0  0  0  0  0  0  0  0  0  0
    3.6478    7.9306    0.3014 C   0  0  0  0  0  0  0  0  0  0  0  0
    6.3758    6.4666    1.6059 C   0  0  0  0  0  0  0  0  0  0  0  0
    4.2522    6.0191    2.6827 C   0  0  0  0  0  0  0  0  0  0  0  0
    6.8651    5.2773    2.1601 C   0  0  0  0  0  0  0  0  0  0  0  0
    4.7579    4.8297    3.2307 C   0  0  0  0  0  0  0  0  0  0  0  0
    8.1048    4.6935    2.0561 N   0  0  0  0  0  0  0  0  0  0  0  0
    6.0889    4.4492    2.9662 C   0  0  0  0  0  0  0  0  0  0  0  0
    8.1586    3.5160    2.7668 C   0  0  0  0  0  0  0  0  0  0  0  0
    6.9046    3.3376    3.3494 C   0  0  0  0  0  0  0  0  0  0  0  0
    9.2076    2.6054    2.9375 C   0  0  0  0  0  0  0  0  0  0  0  0
    6.6908    2.1981    4.1372 C   0  0  0  0  0  0  0  0  0  0  0  0
    8.9741    1.5078    3.7067 N   0  0  0  0  0  0  0  0  0  0  0  0
   10.5657    2.7599    2.3306 C   0  0  0  0  0  0  0  0  0  0  0  0
    7.7611    1.3302    4.2733 C   0  0  0  0  0  0  0  0  0  0  0  0
  1  2  1  0
  1  3  1  0
  2  4  4  0
  2  5  4  0
  4  6  4  0
  5  7  4  0
  6  8  4  0
  6  9  4  0
  8 10  4  0
  9 11  4  0
 10 12  4  0
 11 13  4  0
 12 14  4  0
 12 15  1  0
 13 16  4  0
  7  9  4  0
 10 11  4  0
 14 16  4  0
M  END
