
     RDKit          3D

 32 36  0  0  0  0  0  0  0  0999 V2000
    9.5741   -1.4383    1.2624 S   0  0  0  0  0  0  0  0  0  0  0  0
   10.6639   -1.8579    0.4110 O   0  0  0  0  0  0  0  0  0  0  0  0
    8.7255   -2.4025    1.9256 O   0  0  0  0  0  0  0  0  0  0  0  0
   10.0709   -0.3423    2.3617 O   0  0  0  0  0  0  0  0  0  0  0  0
    8.5232   -0.5919    0.2543 N   0  0  0  0  0  0  0  0  0  0  0  0
    9.1805    0.5733    2.8519 C   0  0  0  0  0  0  0  0  0  0  0  0
    9.4136    1.9429    2.7399 C   0  0  0  0  0  0  0  0  0  0  0  0
    7.9924    0.0983    3.4045 C   0  0  0  0  0  0  0  0  0  0  0  0
    8.4655    2.8459    3.2246 C   0  0  0  0  0  0  0  0  0  0  0  0
    7.0439    1.0010    3.8882 C   0  0  0  0  0  0  0  0  0  0  0  0
    7.2784    2.3799    3.8072 C   0  0  0  0  0  0  0  0  0  0  0  0
    6.2690    3.3341    4.3183 C   0  0  0  0  0  0  0  0  0  0  0  0
    5.2358    2.9775    5.3164 C   0  0  0  0  0  0  0  0  0  0  0  0
    6.3595    4.5833    3.8135 C   0  0  0  0  0  0  0  0  0  0  0  0
    4.9420    1.6847    5.5573 C   0  0  0  0  0  0  0  0  0  0  0  0
    4.4431    4.1356    5.9780 C   0  0  2  0  0  0  0  0  0  0  0  0
    5.4649    5.7069    4.2471 C   0  0  0  0  0  0  0  0  0  0  0  0
    3.7995    1.2806    6.4003 C   0  0  0  0  0  0  0  0  0  0  0  0
    3.1656    3.6313    6.6374 C   0  0  0  0  0  0  0  0  0  0  0  0
    4.1308    5.1491    4.8320 C   0  0  2  0  0  0  0  0  0  0  0  0
    5.2800    4.7488    7.1237 C   0  0  0  0  0  0  0  0  0  0  0  0
    5.2068    6.8780    3.2841 C   0  0  0  0  0  0  0  0  0  0  0  0
    3.5988    0.1062    6.6829 O   0  0  0  0  0  0  0  0  0  0  0  0
    2.8785    2.3404    6.8479 C   0  0  0  0  0  0  0  0  0  0  0  0
    3.1681    6.3224    5.0950 C   0  0  0  0  0  0  0  0  0  0  0  0
    3.8065    6.9042    2.6498 C   0  0  0  0  0  0  0  0  0  0  0  0
    6.1643    7.2058    2.1456 C   0  0  0  0  0  0  0  0  0  0  0  0
    2.7595    7.0294    3.7725 C   0  0  0  0  0  0  0  0  0  0  0  0
    3.9925    8.1464    1.7872 C   0  0  0  0  0  0  0  0  0  0  0  0
    3.4975    5.7644    1.6611 C   0  0  0  0  0  0  0  0  0  0  0  0
    5.4567    8.3751    1.4438 C   0  0  0  0  0  0  0  0  0  0  0  0
    3.0810    8.8615    1.3922 O   0  0  0  0  0  0  0  0  0  0  0  0
  1  2  2  0
  1  3  2  0
  1  4  1  0
  1  5  1  0
  4  6  1  0
  6  7  4  0
  6  8  4  0
  7  9  4  0
  8 10  4  0
  9 11  4  0
 11 12  1  0
 12 13  1  0
 12 14  2  0
 13 15  2  0
 13 16  1  0
 17 14  1  0
 15 18  1  0
 16 19  1  0
 16 20  1  0
 16 21  1  1
 17 22  1  0
 18 23  2  0
 18 24  1  0
 20 25  1  1
 22 26  1  0
 22 27  1  0
 25 28  1  0
 26 29  1  0
 26 30  1  0
 27 31  1  0
 29 32  2  0
 10 11  4  0
 17 20  1  0
 19 24  2  0
 26 28  1  0
 29 31  1  0
M  END
