
     RDKit          3D

 24 27  0  0  0  0  0  0  0  0999 V2000
    3.6471    3.5120    6.3583 Cl  0  0  0  0  0  0  0  0  0  0  0  0
    3.5065    5.2144    5.8041 C   0  0  0  0  0  0  0  0  0  0  0  0
    4.8212    5.6578    5.1480 C   0  0  1  0  0  0  0  0  0  0  0  0
    5.8918    5.2722    6.0225 O   0  0  0  0  0  0  0  0  0  0  0  0
    5.0983    5.1389    3.6635 C   0  0  1  0  0  0  0  0  0  0  0  0
    5.9129    6.1709    2.8682 C   0  0  0  0  0  0  0  0  0  0  0  0
    5.8138    3.6958    3.7550 C   0  0  2  0  0  0  0  0  0  0  0  0
    3.7098    4.9911    2.9416 C   0  0  0  0  0  0  0  0  0  0  0  0
    5.3571    7.1073    2.0752 C   0  0  0  0  0  0  0  0  0  0  0  0
    7.4107    6.1251    2.9681 C   0  0  0  0  0  0  0  0  0  0  0  0
    7.3838    3.6886    3.6029 C   0  0  2  0  0  0  0  0  0  0  0  0
    5.1988    2.5420    2.9073 C   0  0  0  0  0  0  0  0  0  0  0  0
    2.9800    6.2812    2.5837 C   0  0  0  0  0  0  0  0  0  0  0  0
    3.8949    7.2577    1.8996 C   0  0  0  0  0  0  0  0  0  0  0  0
    7.9050    4.7402    2.6181 C   0  0  0  0  0  0  0  0  0  0  0  0
    7.8953    2.3088    3.1485 C   0  0  2  0  0  0  0  0  0  0  0  0
    5.7178    1.1344    3.2971 C   0  0  0  0  0  0  0  0  0  0  0  0
    3.4673    8.1795    1.2071 O   0  0  0  0  0  0  0  0  0  0  0  0
    7.1569    1.1417    3.8173 C   0  0  1  0  0  0  0  0  0  0  0  0
    9.3760    1.9843    3.3294 C   0  0  0  0  0  0  0  0  0  0  0  0
    8.0415    0.0044    3.3282 C   0  0  0  0  0  0  0  0  0  0  0  0
    7.2201    1.0999    5.3542 C   0  0  0  0  0  0  0  0  0  0  0  0
    9.4410    0.4887    2.9945 C   0  0  0  0  0  0  0  0  0  0  0  0
    7.6858   -1.1633    3.2391 O   0  0  0  0  0  0  0  0  0  0  0  0
  1  2  1  0
  2  3  1  0
  3  4  1  1
  5  3  1  0
  5  6  1  0
  5  7  1  0
  5  8  1  6
  6  9  2  0
  6 10  1  0
  7 11  1  0
  7 12  1  6
  8 13  1  0
  9 14  1  0
 10 15  1  0
 11 16  1  0
 12 17  1  0
 14 18  2  0
 16 19  1  0
 16 20  1  1
 19 21  1  0
 19 22  1  1
 20 23  1  0
 21 24  2  0
 11 15  1  6
 13 14  1  0
 17 19  1  0
 21 23  1  0
M  END
