
     RDKit          3D

 22 25  0  0  0  0  0  0  0  0999 V2000
    4.6227    6.3308    5.4676 F   0  0  0  0  0  0  0  0  0  0  0  0
    5.2705    5.2168    5.0470 C   0  0  0  0  0  0  0  0  0  0  0  0
    4.5877    4.1653    5.5686 F   0  0  0  0  0  0  0  0  0  0  0  0
    5.3358    5.1334    3.4941 C   0  0  1  0  0  0  0  0  0  0  0  0
    6.1003    6.3394    2.9135 C   0  0  0  0  0  0  0  0  0  0  0  0
    6.0527    3.8134    3.0044 C   0  0  0  0  0  0  0  0  0  0  0  0
    3.8678    5.1202    2.9503 C   0  0  0  0  0  0  0  0  0  0  0  0
    5.4980    7.3417    2.2455 C   0  0  0  0  0  0  0  0  0  0  0  0
    7.5970    6.3500    3.1126 C   0  0  0  0  0  0  0  0  0  0  0  0
    7.6007    3.8247    3.2355 C   0  0  2  0  0  0  0  0  0  0  0  0
    5.3970    2.5047    3.5282 C   0  0  0  0  0  0  0  0  0  0  0  0
    3.2164    6.4991    2.8968 C   0  0  0  0  0  0  0  0  0  0  0  0
    4.0218    7.4505    2.0214 C   0  0  0  0  0  0  0  0  0  0  0  0
    8.2334    5.0656    2.5936 C   0  0  0  0  0  0  0  0  0  0  0  0
    8.1788    2.5294    2.6576 C   0  0  2  0  0  0  0  0  0  0  0  0
    6.1096    1.2231    3.0566 C   0  0  0  0  0  0  0  0  0  0  0  0
    7.6029    1.2841    3.3622 C   0  0  1  0  0  0  0  0  0  0  0  0
    9.6860    2.2977    2.6634 C   0  0  0  0  0  0  0  0  0  0  0  0
    8.4761    0.2347    2.6984 C   0  0  0  0  0  0  0  0  0  0  0  0
    7.8689    1.1823    4.8756 C   0  0  0  0  0  0  0  0  0  0  0  0
    9.8036    0.8228    2.2501 C   0  0  0  0  0  0  0  0  0  0  0  0
    8.1679   -0.9416    2.5613 O   0  0  0  0  0  0  0  0  0  0  0  0
  1  2  1  0
  2  3  1  0
  4  2  1  1
  4  5  1  0
  4  6  1  0
  4  7  1  0
  5  8  2  0
  5  9  1  0
  6 10  1  0
  6 11  1  0
  7 12  1  0
  8 13  1  0
  9 14  1  0
 10 15  1  0
 11 16  1  0
 15 17  1  0
 15 18  1  1
 17 19  1  0
 17 20  1  1
 18 21  1  0
 19 22  2  0
 10 14  1  6
 12 13  1  0
 16 17  1  0
 19 21  1  0
M  END
