
     RDKit          3D

 24 27  0  0  0  0  0  0  0  0999 V2000
    3.5543    3.4739    6.4145 Br  0  0  0  0  0  0  0  0  0  0  0  0
    3.4860    5.3166    5.7298 C   0  0  0  0  0  0  0  0  0  0  0  0
    4.8388    5.6737    5.1103 C   0  0  1  0  0  0  0  0  0  0  0  0
    5.8567    5.2082    6.0079 O   0  0  0  0  0  0  0  0  0  0  0  0
    5.1119    5.1339    3.6324 C   0  0  1  0  0  0  0  0  0  0  0  0
    5.9325    6.1523    2.8264 C   0  0  0  0  0  0  0  0  0  0  0  0
    5.8221    3.6889    3.7435 C   0  0  2  0  0  0  0  0  0  0  0  0
    3.7233    4.9835    2.9119 C   0  0  0  0  0  0  0  0  0  0  0  0
    5.3840    7.0793    2.0177 C   0  0  0  0  0  0  0  0  0  0  0  0
    7.4293    6.1031    2.9378 C   0  0  0  0  0  0  0  0  0  0  0  0
    7.3919    3.6704    3.5852 C   0  0  2  0  0  0  0  0  0  0  0  0
    5.1960    2.5260    2.9165 C   0  0  0  0  0  0  0  0  0  0  0  0
    3.0018    6.2722    2.5328 C   0  0  0  0  0  0  0  0  0  0  0  0
    3.9231    7.2325    1.8345 C   0  0  0  0  0  0  0  0  0  0  0  0
    7.9196    4.7145    2.5962 C   0  0  0  0  0  0  0  0  0  0  0  0
    7.8925    2.2845    3.1382 C   0  0  2  0  0  0  0  0  0  0  0  0
    5.7112    1.1213    3.3205 C   0  0  0  0  0  0  0  0  0  0  0  0
    3.5015    8.1443    1.1252 O   0  0  0  0  0  0  0  0  0  0  0  0
    7.1550    1.1283    3.8268 C   0  0  1  0  0  0  0  0  0  0  0  0
    9.3733    1.9545    3.3083 C   0  0  0  0  0  0  0  0  0  0  0  0
    8.0298   -0.0188    3.3430 C   0  0  0  0  0  0  0  0  0  0  0  0
    7.2312    1.1043    5.3635 C   0  0  0  0  0  0  0  0  0  0  0  0
    9.4279    0.4551    2.9896 C   0  0  0  0  0  0  0  0  0  0  0  0
    7.6683   -1.1859    3.2717 O   0  0  0  0  0  0  0  0  0  0  0  0
  1  2  1  0
  2  3  1  0
  3  4  1  1
  5  3  1  0
  5  6  1  0
  5  7  1  0
  5  8  1  6
  6  9  2  0
  6 10  1  0
  7 11  1  0
  7 12  1  6
  8 13  1  0
  9 14  1  0
 10 15  1  0
 11 16  1  0
 12 17  1  0
 14 18  2  0
 16 19  1  0
 16 20  1  1
 19 21  1  0
 19 22  1  1
 20 23  1  0
 21 24  2  0
 11 15  1  6
 13 14  1  0
 17 19  1  0
 21 23  1  0
M  END
