
     RDKit          3D

 22 25  0  0  0  0  0  0  0  0999 V2000
    3.4046    8.0363    2.0367 O   0  0  0  0  0  0  0  0  0  0  0  0
    3.9821    7.0910    2.5683 C   0  0  0  0  0  0  0  0  0  0  0  0
    5.4527    6.9739    2.4404 C   0  0  0  0  0  0  0  0  0  0  0  0
    3.2528    6.0696    3.3971 C   0  0  0  0  0  0  0  0  0  0  0  0
    6.1621    6.0078    3.0557 C   0  0  0  0  0  0  0  0  0  0  0  0
    4.0341    4.7613    3.4469 C   0  0  0  0  0  0  0  0  0  0  0  0
    5.5240    4.9067    3.9116 C   0  0  1  0  0  0  0  0  0  0  0  0
    7.6565    6.0074    2.8955 C   0  0  0  0  0  0  0  0  0  0  0  0
    6.2665    3.4928    3.8185 C   0  0  2  0  0  0  0  0  0  0  0  0
    5.4724    5.3794    5.4148 C   0  0  0  0  0  0  0  0  0  0  0  0
    8.1412    4.6460    2.4521 C   0  0  0  0  0  0  0  0  0  0  0  0
    7.8017    3.5537    3.4745 C   0  0  2  0  0  0  0  0  0  0  0  0
    5.5857    2.3845    2.9630 C   0  0  0  0  0  0  0  0  0  0  0  0
    4.5150    4.6791    6.3713 C   0  0  0  0  0  0  0  0  0  0  0  0
    8.3019    2.2097    2.9114 C   0  0  2  0  0  0  0  0  0  0  0  0
    6.1770    0.9705    3.2030 C   0  0  0  0  0  0  0  0  0  0  0  0
    7.6602    0.9888    3.5829 C   0  0  1  0  0  0  0  0  0  0  0  0
    9.8006    1.9228    2.9339 C   0  0  0  0  0  0  0  0  0  0  0  0
    8.5193   -0.0930    2.9444 C   0  0  0  0  0  0  0  0  0  0  0  0
    7.8804    0.8617    5.1005 C   0  0  0  0  0  0  0  0  0  0  0  0
    9.8702    0.4494    2.5119 C   0  0  0  0  0  0  0  0  0  0  0  0
    8.1836   -1.2633    2.8173 O   0  0  0  0  0  0  0  0  0  0  0  0
  1  2  2  0
  2  3  1  0
  2  4  1  0
  3  5  2  0
  4  6  1  0
  5  7  1  0
  5  8  1  0
  7  9  1  0
  7 10  1  1
  8 11  1  0
  9 12  1  0
  9 13  1  6
 10 14  1  0
 12 15  1  0
 13 16  1  0
 15 17  1  0
 15 18  1  1
 17 19  1  0
 17 20  1  1
 18 21  1  0
 19 22  2  0
  6  7  1  0
 12 11  1  6
 16 17  1  0
 19 21  1  0
M  END
