
     RDKit          3D

 29 33  0  0  0  0  0  0  0  0999 V2000
    8.1361    3.2957    3.4134 S   0  0  0  0  0  0  0  0  0  0  0  0
    7.0545    4.6459    2.9843 C   0  0  0  0  0  0  0  0  0  0  0  0
    6.9169    2.0599    4.0284 C   0  0  2  0  0  0  0  0  0  0  0  0
    6.0819    5.1101    3.8718 C   0  0  0  0  0  0  0  0  0  0  0  0
    7.2122    5.2853    1.7541 C   0  0  0  0  0  0  0  0  0  0  0  0
    7.3463    0.5703    3.8988 C   0  0  0  0  0  0  0  0  0  0  0  0
    5.5709    2.2990    3.3025 C   0  0  0  0  0  0  0  0  0  0  0  0
    5.2490    6.1748    3.5111 C   0  0  0  0  0  0  0  0  0  0  0  0
    6.3768    6.3498    1.3993 C   0  0  0  0  0  0  0  0  0  0  0  0
    6.2813   -0.3320    4.6194 C   0  0  1  0  0  0  0  0  0  0  0  0
    8.7847    0.2389    4.4299 C   0  0  1  0  0  0  0  0  0  0  0  0
    4.6825    1.0750    3.2485 C   0  0  0  0  0  0  0  0  0  0  0  0
    5.3534    6.7691    2.2518 C   0  0  0  0  0  0  0  0  0  0  0  0
    4.7719    0.1189    4.4289 C   0  0  1  0  0  0  0  0  0  0  0  0
    6.5559   -1.8140    4.2693 C   0  0  0  0  0  0  0  0  0  0  0  0
    8.9755   -1.2425    4.8826 C   0  0  1  0  0  0  0  0  0  0  0  0
    9.8622    0.4166    3.3352 C   0  0  0  0  0  0  0  0  0  0  0  0
    3.9014    0.8550    2.1751 C   0  0  0  0  0  0  0  0  0  0  0  0
    4.6023    7.9075    1.9447 N   0  0  0  0  0  0  0  0  0  0  0  0
    3.8182   -1.0592    4.2732 C   0  0  0  0  0  0  0  0  0  0  0  0
    4.2691    0.8519    5.7007 C   0  0  0  0  0  0  0  0  0  0  0  0
    8.0340   -2.1769    4.1238 C   0  0  0  0  0  0  0  0  0  0  0  0
   10.4128   -1.5427    4.4704 C   0  0  0  0  0  0  0  0  0  0  0  0
    8.8962   -1.4218    6.4041 C   0  0  0  0  0  0  0  0  0  0  0  0
   11.0690   -0.3779    3.7991 C   0  0  0  0  0  0  0  0  0  0  0  0
    3.0290   -0.3335    2.0726 C   0  0  0  0  0  0  0  0  0  0  0  0
    3.0303   -1.2717    3.2107 C   0  0  0  0  0  0  0  0  0  0  0  0
   10.9869   -2.6029    4.6908 O   0  0  0  0  0  0  0  0  0  0  0  0
    2.3297   -0.5276    1.0868 O   0  0  0  0  0  0  0  0  0  0  0  0
  1  2  1  0
  3  1  1  6
  2  4  4  0
  2  5  4  0
  6  3  1  0
  3  7  1  0
  4  8  4  0
  5  9  4  0
  6 10  1  0
  6 11  1  0
  7 12  1  0
  8 13  4  0
 10 14  1  0
 10 15  1  6
 11 16  1  0
 11 17  1  6
 12 18  2  0
 13 19  1  0
 14 20  1  0
 14 21  1  1
 15 22  1  0
 16 23  1  0
 16 24  1  1
 17 25  1  0
 18 26  1  0
 20 27  2  0
 23 28  2  0
 26 29  2  0
  9 13  4  0
 12 14  1  0
 16 22  1  0
 23 25  1  0
 26 27  1  0
M  END
