
     RDKit          3D

 24 27  0  0  0  0  0  0  0  0999 V2000
   11.0028    2.4889    2.4928 O   0  0  0  0  0  0  0  0  0  0  0  0
    9.7303    2.1186    2.8251 C   0  0  0  0  0  0  0  0  0  0  0  0
   11.6417    3.4432    3.3318 C   0  0  0  0  0  0  0  0  0  0  0  0
    8.6864    2.9747    3.1779 C   0  0  0  0  0  0  0  0  0  0  0  0
    9.4938    0.7507    2.7948 C   0  0  0  0  0  0  0  0  0  0  0  0
    7.3927    2.4806    3.5021 C   0  0  0  0  0  0  0  0  0  0  0  0
    8.2306    0.2490    3.1120 C   0  0  0  0  0  0  0  0  0  0  0  0
    7.1797    1.0814    3.4627 C   0  0  0  0  0  0  0  0  0  0  0  0
    6.2835    3.2996    3.8644 C   0  0  0  0  0  0  0  0  0  0  0  0
    6.0014    0.5068    3.7455 N   0  0  0  0  0  0  0  0  0  0  0  0
    5.0605    2.6793    4.1549 C   0  0  0  0  0  0  0  0  0  0  0  0
    6.3784    4.8213    3.9156 C   0  0  2  0  0  0  0  0  0  0  0  0
    4.9727    1.3049    4.0865 C   0  0  0  0  0  0  0  0  0  0  0  0
    5.3794    5.3331    4.8017 O   0  0  0  0  0  0  0  0  0  0  0  0
    6.2875    5.4606    2.4910 C   0  0  2  0  0  0  0  0  0  0  0  0
    7.2791    6.5658    2.2452 N   0  0  0  0  0  0  0  0  0  0  0  0
    4.8673    5.9234    2.0854 C   0  0  0  0  0  0  0  0  0  0  0  0
    6.7498    7.8685    2.7386 C   0  0  0  0  0  0  0  0  0  0  0  0
    7.4268    6.6889    0.7692 C   0  0  0  0  0  0  0  0  0  0  0  0
    4.9779    7.1404    1.1408 C   0  0  1  0  0  0  0  0  0  0  0  0
    5.4996    8.3531    1.9509 C   0  0  1  0  0  0  0  0  0  0  0  0
    6.0535    6.8160    0.0815 C   0  0  0  0  0  0  0  0  0  0  0  0
    4.5234    9.0689    2.8605 C   0  0  0  0  0  0  0  0  0  0  0  0
    3.3129    8.6530    3.2552 C   0  0  0  0  0  0  0  0  0  0  0  0
  1  2  1  0
  1  3  1  0
  2  4  4  0
  2  5  4  0
  4  6  4  0
  5  7  4  0
  6  8  4  0
  6  9  4  0
  8 10  4  0
  9 11  4  0
  9 12  1  0
 10 13  4  0
 12 14  1  1
 12 15  1  0
 15 16  1  0
 15 17  1  1
 16 18  1  0
 16 19  1  0
 20 17  1  1
 18 21  1  0
 19 22  1  0
 21 23  1  1
 23 24  2  0
  7  8  4  0
 11 13  4  0
 20 21  1  0
 20 22  1  0
M  END
