
     RDKit          3D

 29 32  0  0  0  0  0  0  0  0999 V2000
    5.3545    0.3726    2.4409 O   0  0  0  0  0  0  0  0  0  0  0  0
    6.4888    0.1659    2.8497 C   0  0  0  0  0  0  0  0  0  0  0  0
    7.0667   -1.0590    3.1073 N   0  0  0  0  0  0  0  0  0  0  0  0
    7.3798    1.1856    3.1363 N   0  0  0  0  0  0  0  0  0  0  0  0
    8.3107   -1.5358    2.6490 C   0  0  0  0  0  0  0  0  0  0  0  0
    7.1757    2.0547    4.2965 C   0  0  0  0  0  0  0  0  0  0  0  0
    8.8456   -2.6602    3.2947 C   0  0  0  0  0  0  0  0  0  0  0  0
    9.0359   -0.9419    1.6183 C   0  0  0  0  0  0  0  0  0  0  0  0
    6.0019    1.5753    5.1648 C   0  0  0  0  0  0  0  0  0  0  0  0
    6.9881    3.5033    3.8259 C   0  0  0  0  0  0  0  0  0  0  0  0
   10.0911   -3.1969    2.9195 C   0  0  0  0  0  0  0  0  0  0  0  0
   10.2736   -1.4668    1.2288 C   0  0  0  0  0  0  0  0  0  0  0  0
    4.7045    2.2700    4.7573 C   0  0  0  0  0  0  0  0  0  0  0  0
    6.1128    4.2888    4.7965 C   0  0  0  0  0  0  0  0  0  0  0  0
   10.8136   -2.5913    1.8692 C   0  0  0  0  0  0  0  0  0  0  0  0
   10.6353   -4.3193    3.5676 C   0  0  0  0  0  0  0  0  0  0  0  0
    4.7610    3.7306    4.9420 N   0  0  0  0  0  0  0  0  0  0  0  0
   12.0578   -3.1233    1.4929 C   0  0  0  0  0  0  0  0  0  0  0  0
   11.8772   -4.8305    3.1882 C   0  0  0  0  0  0  0  0  0  0  0  0
    3.7866    4.4243    4.0852 C   0  0  0  0  0  0  0  0  0  0  0  0
   12.5887   -4.2319    2.1521 C   0  0  0  0  0  0  0  0  0  0  0  0
    4.2904    5.7588    3.5385 C   0  0  0  0  0  0  0  0  0  0  0  0
    3.7477    6.8992    4.0158 C   0  0  0  0  0  0  0  0  0  0  0  0
    5.3448    5.6031    2.4514 C   0  0  0  0  0  0  0  0  0  0  0  0
    4.0650    8.3145    3.6436 C   0  0  0  0  0  0  0  0  0  0  0  0
    5.9030    6.8106    1.6901 C   0  0  0  0  0  0  0  0  0  0  0  0
    3.4313    8.7744    2.3319 C   0  0  0  0  0  0  0  0  0  0  0  0
    4.9596    7.4827    0.6903 C   0  0  0  0  0  0  0  0  0  0  0  0
    3.5415    7.8140    1.1470 C   0  0  0  0  0  0  0  0  0  0  0  0
  1  2  2  0
  2  3  1  0
  2  4  1  0
  3  5  1  0
  4  6  1  0
  5  7  4  0
  5  8  4  0
  6  9  1  0
  6 10  1  0
  7 11  4  0
  8 12  4  0
  9 13  1  0
 10 14  1  0
 11 15  4  0
 11 16  4  0
 13 17  1  0
 15 18  4  0
 16 19  4  0
 17 20  1  0
 18 21  4  0
 20 22  1  0
 22 23  2  0
 22 24  1  0
 23 25  1  0
 24 26  1  0
 25 27  1  0
 26 28  1  0
 27 29  1  0
 12 15  4  0
 14 17  1  0
 19 21  4  0
 28 29  1  0
M  END
