
     RDKit          3D

 28 31  0  0  0  0  0  0  0  0999 V2000
    3.1958    0.9742    2.3250 O   0  0  0  0  0  0  0  0  0  0  0  0
    4.2919    0.9077    2.8761 C   0  0  0  0  0  0  0  0  0  0  0  0
    5.0018    2.1329    3.3319 C   0  0  0  0  0  0  0  0  0  0  0  0
    4.9587   -0.4166    3.1211 C   0  0  0  0  0  0  0  0  0  0  0  0
    4.7840    3.2261    2.5835 C   0  0  0  0  0  0  0  0  0  0  0  0
    5.8850    2.0477    4.5733 C   0  0  2  0  0  0  0  0  0  0  0  0
    6.4532   -0.3013    3.4093 C   0  0  2  0  0  0  0  0  0  0  0  0
    5.3728    4.5325    2.9415 C   0  0  0  0  0  0  0  0  0  0  0  0
    6.7587    0.6826    4.5852 C   0  0  1  0  0  0  0  0  0  0  0  0
    4.9745    2.0393    5.8845 C   0  0  0  0  0  0  0  0  0  0  0  0
    6.8123    3.3060    4.5911 C   0  0  0  0  0  0  0  0  0  0  0  0
    7.3100    0.0768    2.1952 C   0  0  1  0  0  0  0  0  0  0  0  0
    5.1635    5.5047    2.2209 O   0  0  0  0  0  0  0  0  0  0  0  0
    6.1742    4.6388    4.2123 C   0  0  0  0  0  0  0  0  0  0  0  0
    8.2990    0.8162    4.8176 C   0  0  0  0  0  0  0  0  0  0  0  0
    4.2261    0.8059    5.9401 O   0  0  0  0  0  0  0  0  0  0  0  0
    3.9905    3.1394    5.9534 C   0  0  0  0  0  0  0  0  0  0  0  0
    8.8151   -0.0777    2.5019 C   0  0  2  0  0  0  0  0  0  0  0  0
    7.1249   -0.6602    0.8723 C   0  0  0  0  0  0  0  0  0  0  0  0
    9.1845    0.9537    3.5625 C   0  0  0  0  0  0  0  0  0  0  0  0
    3.9734    0.3138    7.1828 C   0  0  0  0  0  0  0  0  0  0  0  0
    3.1577    4.0023    6.0288 C   0  0  0  0  0  0  0  0  0  0  0  0
    9.3534    0.1722    1.1037 C   0  0  0  0  0  0  0  0  0  0  0  0
    9.2892   -1.4858    2.9061 C   0  0  0  0  0  0  0  0  0  0  0  0
    8.3274   -0.1853    0.0430 C   0  0  0  0  0  0  0  0  0  0  0  0
    3.0919    0.6994    7.9356 O   0  0  0  0  0  0  0  0  0  0  0  0
    4.9632   -0.7599    7.5162 C   0  0  0  0  0  0  0  0  0  0  0  0
   10.4773    0.5878    0.8573 O   0  0  0  0  0  0  0  0  0  0  0  0
  1  2  2  0
  2  3  1  0
  2  4  1  0
  3  5  2  0
  3  6  1  0
  7  4  1  6
  5  8  1  0
  6  9  1  0
  6 10  1  1
  6 11  1  0
  7 12  1  0
  8 13  2  0
  8 14  1  0
  9 15  1  6
 10 16  1  0
 10 17  1  0
 12 18  1  0
 12 19  1  6
 15 20  1  0
 16 21  1  0
 17 22  3  0
 18 23  1  0
 18 24  1  1
 19 25  1  0
 21 26  2  0
 21 27  1  0
 23 28  2  0
  7  9  1  0
 11 14  1  0
 18 20  1  0
 23 25  1  0
M  END
