
     RDKit          3D

 28 31  0  0  0  0  0  0  0  0999 V2000
    8.4757    6.2240    2.9733 O   0  0  0  0  0  0  0  0  0  0  0  0
    7.8554    5.1772    2.8107 C   0  0  0  0  0  0  0  0  0  0  0  0
    6.3685    5.1525    2.8592 C   0  0  0  0  0  0  0  0  0  0  0  0
    8.5443    3.8893    2.4441 C   0  0  0  0  0  0  0  0  0  0  0  0
    5.7597    6.1887    2.2617 C   0  0  0  0  0  0  0  0  0  0  0  0
    5.6823    3.9706    3.5355 C   0  0  1  0  0  0  0  0  0  0  0  0
    7.9849    2.6956    3.2172 C   0  0  1  0  0  0  0  0  0  0  0  0
    4.2846    6.2832    2.2267 C   0  0  0  0  0  0  0  0  0  0  0  0
    6.4252    2.6286    3.1177 C   0  0  0  0  0  0  0  0  0  0  0  0
    5.5719    4.2593    5.0876 C   0  0  1  0  0  0  0  0  0  0  0  0
    4.2290    3.8842    2.9437 C   0  0  0  0  0  0  0  0  0  0  0  0
    8.5589    1.3782    2.6778 C   0  0  2  0  0  0  0  0  0  0  0  0
    3.7547    7.2375    1.6652 O   0  0  0  0  0  0  0  0  0  0  0  0
    3.4817    5.2160    2.9272 C   0  0  0  0  0  0  0  0  0  0  0  0
    5.8628    1.3353    3.7712 C   0  0  0  0  0  0  0  0  0  0  0  0
    5.2835    5.6501    5.3210 O   0  0  0  0  0  0  0  0  0  0  0  0
    4.5468    3.4662    5.7934 C   0  0  0  0  0  0  0  0  0  0  0  0
    8.0775    0.1607    3.4917 C   0  0  1  0  0  0  0  0  0  0  0  0
   10.0693    1.1871    2.5811 C   0  0  0  0  0  0  0  0  0  0  0  0
    6.5679    0.0471    3.3060 C   0  0  0  0  0  0  0  0  0  0  0  0
    4.3205    5.9414    6.2333 C   0  0  0  0  0  0  0  0  0  0  0  0
    3.7472    2.8233    6.4188 C   0  0  0  0  0  0  0  0  0  0  0  0
    8.9275   -0.9015    2.8182 C   0  0  0  0  0  0  0  0  0  0  0  0
    8.4649    0.1510    4.9822 C   0  0  0  0  0  0  0  0  0  0  0  0
   10.2012   -0.3059    2.2415 C   0  0  0  0  0  0  0  0  0  0  0  0
    3.1590    6.2214    5.9805 O   0  0  0  0  0  0  0  0  0  0  0  0
    4.8850    5.8426    7.6173 C   0  0  0  0  0  0  0  0  0  0  0  0
    8.6411   -2.0897    2.7639 O   0  0  0  0  0  0  0  0  0  0  0  0
  1  2  2  0
  2  3  1  0
  2  4  1  0
  3  5  2  0
  3  6  1  0
  7  4  1  6
  5  8  1  0
  6  9  1  0
  6 10  1  0
  6 11  1  6
  7 12  1  0
  8 13  2  0
  8 14  1  0
  9 15  1  0
 10 16  1  0
 10 17  1  6
 12 18  1  0
 12 19  1  1
 15 20  1  0
 16 21  1  0
 17 22  3  0
 18 23  1  0
 18 24  1  1
 19 25  1  0
 21 26  2  0
 21 27  1  0
 23 28  2  0
  7  9  1  0
 11 14  1  0
 18 20  1  0
 23 25  1  0
M  END
