
     RDKit          3D

 23 27  0  0  0  0  0  0  0  0999 V2000
    4.1679    7.9198    4.5615 S   0  0  0  0  0  0  0  0  0  0  0  0
    4.8386    6.1993    4.6063 C   0  0  0  0  0  0  0  0  0  0  0  0
    4.7821    8.4895    2.9249 C   0  0  0  0  0  0  0  0  0  0  0  0
    4.6644    5.3851    3.2797 C   0  0  1  0  0  0  0  0  0  0  0  0
    4.8015    7.4517    1.7975 C   0  0  1  0  0  0  0  0  0  0  0  0
    5.4627    6.1735    2.2573 C   0  0  0  0  0  0  0  0  0  0  0  0
    5.2384    3.9289    3.4831 C   0  0  0  0  0  0  0  0  0  0  0  0
    3.1390    5.3411    2.9179 C   0  0  0  0  0  0  0  0  0  0  0  0
    3.4051    7.1575    1.2584 C   0  0  0  0  0  0  0  0  0  0  0  0
    6.7111    5.8545    1.8874 C   0  0  0  0  0  0  0  0  0  0  0  0
    6.8047    3.8760    3.5465 C   0  0  2  0  0  0  0  0  0  0  0  0
    4.7632    2.8037    2.5252 C   0  0  0  0  0  0  0  0  0  0  0  0
    2.8531    5.7650    1.4828 C   0  0  0  0  0  0  0  0  0  0  0  0
    2.7658    8.0061    0.6350 O   0  0  0  0  0  0  0  0  0  0  0  0
    7.4833    4.6958    2.4206 C   0  0  0  0  0  0  0  0  0  0  0  0
    7.3113    2.4207    3.4288 C   0  0  2  0  0  0  0  0  0  0  0  0
    5.0777    1.3942    3.1068 C   0  0  0  0  0  0  0  0  0  0  0  0
    6.3442    1.3634    3.9793 C   0  0  1  0  0  0  0  0  0  0  0  0
    8.6685    2.0641    4.0204 C   0  0  0  0  0  0  0  0  0  0  0  0
    7.2467    0.1488    3.8057 C   0  0  0  0  0  0  0  0  0  0  0  0
    6.0456    1.4388    5.4877 C   0  0  0  0  0  0  0  0  0  0  0  0
    8.7176    0.5391    3.8383 C   0  0  0  0  0  0  0  0  0  0  0  0
    6.8491   -1.0024    3.6863 O   0  0  0  0  0  0  0  0  0  0  0  0
  1  2  1  0
  1  3  1  0
  4  2  1  1
  5  3  1  1
  4  6  1  0
  4  7  1  0
  4  8  1  0
  5  9  1  0
  6 10  2  0
  7 11  1  0
  7 12  1  0
  8 13  1  0
  9 14  2  0
 10 15  1  0
 11 16  1  0
 12 17  1  0
 16 18  1  0
 16 19  1  1
 18 20  1  0
 18 21  1  1
 19 22  1  0
 20 23  2  0
  5  6  1  0
  9 13  1  0
 11 15  1  6
 17 18  1  0
 20 22  1  0
M  END
