
     RDKit          3D

 29 33  0  0  0  0  0  0  0  0999 V2000
    4.8801    6.4031    3.2331 O   0  0  0  0  0  0  0  0  0  0  0  0
    5.7942    5.3919    3.2074 C   0  0  0  0  0  0  0  0  0  0  0  0
    5.4977    4.2323    3.9128 C   0  0  0  0  0  0  0  0  0  0  0  0
    6.9880    5.5126    2.5197 C   0  0  0  0  0  0  0  0  0  0  0  0
    6.3844    3.1361    3.9242 C   0  0  0  0  0  0  0  0  0  0  0  0
    7.8946    4.4514    2.5470 C   0  0  0  0  0  0  0  0  0  0  0  0
    7.6068    3.2456    3.2241 C   0  0  0  0  0  0  0  0  0  0  0  0
    6.0795    1.8957    4.7510 C   0  0  2  0  0  0  0  0  0  0  0  0
    8.6612    2.1423    3.2350 C   0  0  1  0  0  0  0  0  0  0  0  0
    6.7581    0.6674    4.1403 C   0  0  0  0  0  0  0  0  0  0  0  0
    4.5860    1.5952    5.0399 C   0  0  0  0  0  0  0  0  0  0  0  0
    8.2740    0.8639    4.0457 C   0  0  1  0  0  0  0  0  0  0  0  0
    9.1728    1.7686    1.8185 C   0  0  0  0  0  0  0  0  0  0  0  0
    4.2963    0.1830    5.5713 C   0  0  0  0  0  0  0  0  0  0  0  0
    8.9165   -0.3960    3.4415 C   0  0  1  0  0  0  0  0  0  0  0  0
   10.3958    0.8226    1.8330 C   0  0  0  0  0  0  0  0  0  0  0  0
    4.3884   -0.8896    4.4779 C   0  0  0  0  0  0  0  0  0  0  0  0
   10.3725   -0.1852    2.9980 C   0  0  2  0  0  0  0  0  0  0  0  0
    8.9626   -1.6566    4.3077 C   0  0  0  0  0  0  0  0  0  0  0  0
    3.4410   -0.6776    3.3244 C   0  0  0  0  0  0  0  0  0  0  0  0
   10.7217   -1.6336    2.5908 C   0  0  2  0  0  0  0  0  0  0  0  0
   11.3162    0.2961    4.1293 C   0  0  0  0  0  0  0  0  0  0  0  0
   10.0959   -2.4995    3.6993 C   0  0  0  0  0  0  0  0  0  0  0  0
    3.7616    0.2231    2.2987 C   0  0  0  0  0  0  0  0  0  0  0  0
    2.2274   -1.3744    3.2599 C   0  0  0  0  0  0  0  0  0  0  0  0
   12.1115   -1.8718    2.4865 O   0  0  0  0  0  0  0  0  0  0  0  0
    2.8881    0.4170    1.2273 C   0  0  0  0  0  0  0  0  0  0  0  0
    1.3537   -1.1780    2.1895 C   0  0  0  0  0  0  0  0  0  0  0  0
    1.6836   -0.2819    1.1739 C   0  0  0  0  0  0  0  0  0  0  0  0
  1  2  1  0
  2  3  4  0
  2  4  4  0
  3  5  4  0
  4  6  4  0
  5  7  4  0
  5  8  1  0
  7  9  1  0
  8 10  1  0
  8 11  1  6
  9 12  1  0
  9 13  1  6
 11 14  1  0
 12 15  1  0
 13 16  1  0
 14 17  1  0
 15 18  1  0
 15 19  1  1
 17 20  1  0
 18 21  1  0
 18 22  1  1
 19 23  1  0
 20 24  4  0
 20 25  4  0
 21 26  1  1
 24 27  4  0
 25 28  4  0
 27 29  4  0
  6  7  4  0
 12 10  1  6
 16 18  1  0
 21 23  1  0
 28 29  4  0
M  END
