
     RDKit          3D

 33 37  0  0  0  0  0  0  0  0999 V2000
   10.2480   -3.3347   -0.2485 Br  0  0  0  0  0  0  0  0  0  0  0  0
    8.6782   -2.5397   -1.0763 C   0  0  0  0  0  0  0  0  0  0  0  0
    8.8312   -1.0338   -1.1243 C   0  0  0  0  0  0  0  0  0  0  0  0
    9.5686   -0.5159   -1.9587 O   0  0  0  0  0  0  0  0  0  0  0  0
    8.0180   -0.3608   -0.2263 N   0  0  0  0  0  0  0  0  0  0  0  0
    8.0404   -0.4302    1.1809 C   0  0  0  0  0  0  0  0  0  0  0  0
    7.5181   -1.4871    1.9204 C   0  0  0  0  0  0  0  0  0  0  0  0
    8.6359    0.6346    1.8656 C   0  0  0  0  0  0  0  0  0  0  0  0
    7.5993   -1.4799    3.3198 C   0  0  0  0  0  0  0  0  0  0  0  0
    8.7177    0.6390    3.2655 C   0  0  0  0  0  0  0  0  0  0  0  0
    8.2125   -0.4265    4.0098 C   0  0  0  0  0  0  0  0  0  0  0  0
    8.2693   -0.5674    5.7907 S   0  0  0  0  0  0  0  0  0  0  0  0
    6.5111   -0.3760    6.3371 C   0  0  2  0  0  0  0  0  0  0  0  0
    5.7813   -1.7397    6.6102 C   0  0  0  0  0  0  0  0  0  0  0  0
    5.8441    0.4430    5.1869 C   0  0  0  0  0  0  0  0  0  0  0  0
    4.2002   -1.5648    6.7621 C   0  0  0  0  0  0  0  0  0  0  0  0
    6.2757   -2.7068    7.7510 C   0  0  2  0  0  0  0  0  0  0  0  0
    4.4590   -0.0385    4.8381 C   0  0  0  0  0  0  0  0  0  0  0  0
    3.5759   -0.3178    6.0352 C   0  0  1  0  0  0  0  0  0  0  0  0
    3.6909   -1.7214    8.2139 C   0  0  0  0  0  0  0  0  0  0  0  0
    5.9235   -2.2585    9.1922 C   0  0  2  0  0  0  0  0  0  0  0  0
    7.7637   -3.0795    7.8330 C   0  0  0  0  0  0  0  0  0  0  0  0
    4.1057   -0.2728    3.5623 C   0  0  0  0  0  0  0  0  0  0  0  0
    2.1090   -0.5983    5.5881 C   0  0  0  0  0  0  0  0  0  0  0  0
    3.5032    0.9521    6.9257 C   0  0  0  0  0  0  0  0  0  0  0  0
    4.7324   -1.3070    9.2430 C   0  0  0  0  0  0  0  0  0  0  0  0
    7.2240   -1.6120    9.6245 C   0  0  0  0  0  0  0  0  0  0  0  0
    5.6877   -3.4663   10.1202 C   0  0  0  0  0  0  0  0  0  0  0  0
    8.4064   -2.1692    8.8787 C   0  0  0  0  0  0  0  0  0  0  0  0
    2.8155   -0.9173    3.2243 C   0  0  0  0  0  0  0  0  0  0  0  0
    1.9923   -1.4811    4.3538 C   0  0  0  0  0  0  0  0  0  0  0  0
    7.3134   -0.7627   10.5025 O   0  0  0  0  0  0  0  0  0  0  0  0
    2.4928   -1.0485    2.0462 O   0  0  0  0  0  0  0  0  0  0  0  0
  1  2  1  0
  2  3  1  0
  3  4  2  0
  3  5  1  0
  5  6  1  0
  6  7  4  0
  6  8  4  0
  7  9  4  0
  8 10  4  0
  9 11  4  0
 11 12  1  0
 13 12  1  6
 13 14  1  0
 13 15  1  0
 14 16  1  0
 14 17  1  0
 15 18  1  0
 16 19  1  0
 16 20  1  0
 17 21  1  0
 17 22  1  1
 18 23  2  0
 19 24  1  0
 19 25  1  1
 20 26  1  0
 21 27  1  0
 21 28  1  1
 22 29  1  0
 23 30  1  0
 24 31  1  0
 27 32  2  0
 30 33  2  0
 10 11  4  0
 18 19  1  0
 21 26  1  0
 27 29  1  0
 30 31  1  0
M  END
