
     RDKit          3D

 21 24  0  0  0  0  0  0  0  0999 V2000
    7.9136   -0.6803    3.6242 O   0  0  0  0  0  0  0  0  0  0  0  0
    8.0498    0.5272    2.9002 C   0  0  1  0  0  0  0  0  0  0  0  0
    7.2118    1.6799    3.4859 C   0  0  1  0  0  0  0  0  0  0  0  0
    9.4962    1.0582    2.9423 C   0  0  0  0  0  0  0  0  0  0  0  0
    7.9041    2.8695    2.7939 C   0  0  2  0  0  0  0  0  0  0  0  0
    5.7366    1.6793    3.0650 C   0  0  0  0  0  0  0  0  0  0  0  0
    7.3107    1.6855    5.0327 C   0  0  0  0  0  0  0  0  0  0  0  0
    9.3895    2.5926    3.0113 C   0  0  0  0  0  0  0  0  0  0  0  0
    7.3255    4.2238    3.2191 C   0  0  2  0  0  0  0  0  0  0  0  0
    5.0532    3.0158    3.4079 C   0  0  0  0  0  0  0  0  0  0  0  0
    5.8056    4.2561    2.8540 C   0  0  0  0  0  0  0  0  0  0  0  0
    8.0660    5.3811    2.5351 C   0  0  0  0  0  0  0  0  0  0  0  0
    5.1191    5.6399    3.1863 C   0  0  1  0  0  0  0  0  0  0  0  0
    7.4595    6.7279    2.9055 C   0  0  0  0  0  0  0  0  0  0  0  0
    5.9818    6.7752    2.5993 C   0  0  0  0  0  0  0  0  0  0  0  0
    3.7078    5.6526    2.5134 C   0  0  0  0  0  0  0  0  0  0  0  0
    4.9985    5.9040    4.7203 C   0  0  0  0  0  0  0  0  0  0  0  0
    5.4698    7.7795    1.8622 C   0  0  0  0  0  0  0  0  0  0  0  0
    3.1183    7.0556    2.4048 C   0  0  0  0  0  0  0  0  0  0  0  0
    5.8225    5.0610    5.5177 O   0  0  0  0  0  0  0  0  0  0  0  0
    4.0135    7.9496    1.5539 C   0  0  0  0  0  0  0  0  0  0  0  0
  2  1  1  1
  2  3  1  0
  2  4  1  0
  3  5  1  0
  3  6  1  0
  3  7  1  1
  4  8  1  0
  5  9  1  0
  6 10  1  0
  9 11  1  0
  9 12  1  6
 11 13  1  0
 12 14  1  0
 13 15  1  0
 13 16  1  0
 13 17  1  1
 15 18  2  0
 16 19  1  0
 17 20  1  0
 18 21  1  0
  5  8  1  1
 11 10  1  0
 14 15  1  0
 19 21  1  0
M  END
