
     RDKit          3D

 21 24  0  0  0  0  0  0  0  0999 V2000
    2.6955    7.8471    3.4936 O   0  0  0  0  0  0  0  0  0  0  0  0
    3.5242    6.7756    3.6563 C   0  0  0  0  0  0  0  0  0  0  0  0
    4.6483    6.6972    2.8394 C   0  0  0  0  0  0  0  0  0  0  0  0
    3.2587    5.7957    4.6021 C   0  0  0  0  0  0  0  0  0  0  0  0
    5.5456    5.6253    2.9609 C   0  0  0  0  0  0  0  0  0  0  0  0
    4.1306    4.7154    4.7231 C   0  0  0  0  0  0  0  0  0  0  0  0
    5.2725    4.6167    3.9078 C   0  0  0  0  0  0  0  0  0  0  0  0
    6.7963    5.4939    2.1109 C   0  0  2  0  0  0  0  0  0  0  0  0
    6.1631    3.3886    4.0218 C   0  0  2  0  0  0  0  0  0  0  0  0
    7.9349    5.0222    3.0266 C   0  0  0  0  0  0  0  0  0  0  0  0
    7.2334    6.7684    1.3806 C   0  0  0  0  0  0  0  0  0  0  0  0
    7.6634    3.6419    3.6542 C   0  0  0  0  0  0  0  0  0  0  0  0
    5.5222    2.2342    3.2102 C   0  0  0  0  0  0  0  0  0  0  0  0
    8.1986    2.5002    2.7740 C   0  0  2  0  0  0  0  0  0  0  0  0
    6.3019    0.9097    3.2446 C   0  0  0  0  0  0  0  0  0  0  0  0
    7.8255    1.1080    3.3222 C   0  0  1  0  0  0  0  0  0  0  0  0
    9.7132    2.4162    2.5624 C   0  0  0  0  0  0  0  0  0  0  0  0
    8.6265    0.2248    2.3441 C   0  0  1  0  0  0  0  0  0  0  0  0
    8.2861    0.8618    4.7816 C   0  0  0  0  0  0  0  0  0  0  0  0
    9.9764    0.9452    2.2041 C   0  0  0  0  0  0  0  0  0  0  0  0
    8.7844   -1.1039    2.8017 O   0  0  0  0  0  0  0  0  0  0  0  0
  1  2  1  0
  2  3  4  0
  2  4  4  0
  3  5  4  0
  4  6  4  0
  5  7  4  0
  5  8  1  0
  7  9  1  0
  8 10  1  0
  8 11  1  1
  9 12  1  0
  9 13  1  6
 12 14  1  0
 13 15  1  0
 14 16  1  0
 14 17  1  1
 16 18  1  0
 16 19  1  1
 17 20  1  0
 18 21  1  1
  6  7  4  0
 12 10  1  0
 15 16  1  0
 18 20  1  0
M  END
