
     RDKit          3D

 22 24  0  0  0  0  0  0  0  0999 V2000
    3.6130    8.4091    1.7262 F   0  0  0  0  0  0  0  0  0  0  0  0
    3.8879    7.3467    2.4942 C   0  0  0  0  0  0  0  0  0  0  0  0
    4.2880    6.1570    1.9002 C   0  0  0  0  0  0  0  0  0  0  0  0
    3.7746    7.4515    3.8744 C   0  0  0  0  0  0  0  0  0  0  0  0
    4.5811    5.0496    2.6990 C   0  0  0  0  0  0  0  0  0  0  0  0
    4.0637    6.3443    4.6742 C   0  0  0  0  0  0  0  0  0  0  0  0
    4.4710    5.1261    4.0971 C   0  0  0  0  0  0  0  0  0  0  0  0
    4.7692    3.9427    5.0053 C   0  0  0  0  0  0  0  0  0  0  0  0
    5.0727    4.3761    6.3346 O   0  0  0  0  0  0  0  0  0  0  0  0
    5.8726    2.9943    4.4533 C   0  0  0  0  0  0  0  0  0  0  0  0
    7.0906    3.7991    3.9882 C   0  0  0  0  0  0  0  0  0  0  0  0
    5.4208    2.0855    3.2962 C   0  0  0  0  0  0  0  0  0  0  0  0
    7.2048    5.1746    4.2473 C   0  0  0  0  0  0  0  0  0  0  0  0
    8.1142    3.1607    3.2709 C   0  0  0  0  0  0  0  0  0  0  0  0
    6.2267    0.9015    3.1100 N   0  0  0  0  0  0  0  0  0  0  0  0
    8.3196    5.8898    3.8071 C   0  0  0  0  0  0  0  0  0  0  0  0
    9.2268    3.8797    2.8308 C   0  0  0  0  0  0  0  0  0  0  0  0
    6.0313    0.1035    2.0448 N   0  0  0  0  0  0  0  0  0  0  0  0
    7.1489    0.3711    3.9627 C   0  0  0  0  0  0  0  0  0  0  0  0
    9.3301    5.2428    3.0998 C   0  0  0  0  0  0  0  0  0  0  0  0
    6.8477   -0.9351    2.1702 N   0  0  0  0  0  0  0  0  0  0  0  0
    7.5369   -0.7910    3.3409 C   0  0  0  0  0  0  0  0  0  0  0  0
  1  2  1  0
  2  3  4  0
  2  4  4  0
  3  5  4  0
  4  6  4  0
  5  7  4  0
  7  8  1  0
  8  9  1  0
  8 10  1  0
 10 11  1  0
 10 12  1  0
 11 13  4  0
 11 14  4  0
 12 15  1  0
 13 16  4  0
 14 17  4  0
 15 18  4  0
 15 19  4  0
 16 20  4  0
 18 21  4  0
 19 22  4  0
  6  7  4  0
 17 20  4  0
 21 22  4  0
M  END
