
     RDKit          3D

 30 34  0  0  0  0  0  0  0  0999 V2000
   16.6340    7.0226    8.8309 O   0  0  0  0  0  0  0  0  0  0  0  0
   16.1236    7.2209    7.7361 C   0  0  0  0  0  0  0  0  0  0  0  0
   14.8913    6.5218    7.3185 C   0  0  0  0  0  0  0  0  0  0  0  0
   16.6633    8.2286    6.8025 C   0  0  0  0  0  0  0  0  0  0  0  0
   14.4088    6.6355    6.0661 C   0  0  0  0  0  0  0  0  0  0  0  0
   16.1918    8.3215    5.5507 C   0  0  0  0  0  0  0  0  0  0  0  0
   15.1415    7.3872    4.9541 C   0  0  2  0  0  0  0  0  0  0  0  0
   12.9981    6.1723    5.7970 C   0  0  0  0  0  0  0  0  0  0  0  0
   14.0348    8.1320    4.1205 C   0  0  2  0  0  0  0  0  0  0  0  0
   15.9561    6.3928    4.0917 C   0  0  0  0  0  0  0  0  0  0  0  0
   12.6465    5.9265    4.3173 C   0  0  2  0  0  0  0  0  0  0  0  0
   13.0738    7.1089    3.3656 C   0  0  1  0  0  0  0  0  0  0  0  0
   14.5869    9.2438    3.1916 C   0  0  0  0  0  0  0  0  0  0  0  0
   11.2370    5.2999    4.1992 C   0  0  0  0  0  0  0  0  0  0  0  0
   12.0151    7.9303    2.5928 C   0  0  1  0  0  0  0  0  0  0  0  0
   13.5010    9.9367    2.3653 C   0  0  0  0  0  0  0  0  0  0  0  0
   11.0262    4.3038    3.0466 C   0  0  0  0  0  0  0  0  0  0  0  0
   12.6924    8.9128    1.5883 C   0  0  2  0  0  0  0  0  0  0  0  0
   10.9571    7.2735    1.7049 C   0  0  0  0  0  0  0  0  0  0  0  0
    9.7255    3.4950    3.1774 C   0  0  0  0  0  0  0  0  0  0  0  0
   11.4546    9.4535    0.9009 C   0  0  0  0  0  0  0  0  0  0  0  0
   13.5451    8.2666    0.4747 C   0  0  0  0  0  0  0  0  0  0  0  0
   10.3308    8.4456    0.9352 C   0  0  0  0  0  0  0  0  0  0  0  0
    8.4721    4.3133    3.0005 C   0  0  0  0  0  0  0  0  0  0  0  0
   11.3767   10.5488    0.3609 O   0  0  0  0  0  0  0  0  0  0  0  0
    7.2080    3.7245    3.1332 C   0  0  0  0  0  0  0  0  0  0  0  0
    8.5567    5.6761    2.6809 C   0  0  0  0  0  0  0  0  0  0  0  0
    6.0514    4.4824    2.9425 C   0  0  0  0  0  0  0  0  0  0  0  0
    7.3992    6.4324    2.4913 C   0  0  0  0  0  0  0  0  0  0  0  0
    6.1472    5.8349    2.6204 C   0  0  0  0  0  0  0  0  0  0  0  0
  1  2  2  0
  2  3  1  0
  2  4  1  0
  3  5  2  0
  4  6  2  0
  5  7  1  0
  5  8  1  0
  7  9  1  0
  7 10  1  6
  8 11  1  0
 12  9  1  0
  9 13  1  6
 11 14  1  1
 12 15  1  0
 13 16  1  0
 14 17  1  0
 15 18  1  0
 15 19  1  6
 17 20  1  0
 18 21  1  0
 18 22  1  6
 19 23  1  0
 20 24  1  0
 21 25  2  0
 24 26  4  0
 24 27  4  0
 26 28  4  0
 27 29  4  0
 28 30  4  0
  6  7  1  0
 12 11  1  1
 16 18  1  0
 21 23  1  0
 29 30  4  0
M  END
