
     RDKit          3D

 28 31  0  0  0  0  0  0  0  0999 V2000
    7.2616   -3.9094   -0.3733 O   0  0  0  0  0  0  0  0  0  0  0  0
    6.6986   -3.2136    0.4614 C   0  0  0  0  0  0  0  0  0  0  0  0
    7.4081   -2.3636    1.4997 C   0  0  2  0  0  0  0  0  0  0  0  0
    5.1893   -3.1172    0.6051 C   0  0  0  0  0  0  0  0  0  0  0  0
    6.2950   -1.3219    1.7313 C   0  0  1  0  0  0  0  0  0  0  0  0
    8.6553   -1.6209    1.0359 C   0  0  0  0  0  0  0  0  0  0  0  0
    7.7229   -3.2930    2.6866 C   0  0  0  0  0  0  0  0  0  0  0  0
    5.0159   -2.1500    1.7853 C   0  0  0  0  0  0  0  0  0  0  0  0
    6.6411   -0.3707    2.8803 C   0  0  1  0  0  0  0  0  0  0  0  0
    9.0889   -0.5647    2.0701 C   0  0  0  0  0  0  0  0  0  0  0  0
    7.9514    0.4044    2.4970 C   0  0  2  0  0  0  0  0  0  0  0  0
    5.4856    0.5999    3.1833 C   0  0  0  0  0  0  0  0  0  0  0  0
    8.3533    1.4441    3.6067 C   0  0  2  0  0  0  0  0  0  0  0  0
    5.8479    1.6533    4.2507 C   0  0  1  0  0  0  0  0  0  0  0  0
    7.1229    2.3675    3.7980 C   0  0  0  0  0  0  0  0  0  0  0  0
    9.6192    2.2755    3.2244 C   0  0  0  0  0  0  0  0  0  0  0  0
    8.7258    0.7431    4.9394 C   0  0  0  0  0  0  0  0  0  0  0  0
    4.6184    2.5200    4.6458 C   0  0  0  0  0  0  0  0  0  0  0  0
    7.1742    3.6816    3.5030 C   0  0  0  0  0  0  0  0  0  0  0  0
    9.3245    3.3970    2.2411 C   0  0  0  0  0  0  0  0  0  0  0  0
    4.8932    3.7375    5.5413 C   0  0  0  0  0  0  0  0  0  0  0  0
    8.3395    4.3761    2.8663 C   0  0  0  0  0  0  0  0  0  0  0  0
    4.4140    5.0588    4.9275 C   0  0  0  0  0  0  0  0  0  0  0  0
    4.1355    5.0416    3.4222 C   0  0  0  0  0  0  0  0  0  0  0  0
    3.1358    6.0816    2.9046 C   0  0  0  0  0  0  0  0  0  0  0  0
    3.7728    7.1804    2.0486 C   0  0  0  0  0  0  0  0  0  0  0  0
    3.8720    6.8069    0.5683 C   0  0  0  0  0  0  0  0  0  0  0  0
    2.5292    6.4687   -0.0623 C   0  0  0  0  0  0  0  0  0  0  0  0
  1  2  2  0
  2  3  1  0
  2  4  1  0
  3  5  1  0
  3  6  1  0
  3  7  1  1
  4  8  1  0
  5  9  1  0
  6 10  1  0
  9 11  1  0
  9 12  1  6
 11 13  1  0
 12 14  1  0
 13 15  1  0
 13 16  1  0
 13 17  1  1
 14 18  1  6
 15 19  2  0
 16 20  1  0
 18 21  1  0
 19 22  1  0
 21 23  1  0
 23 24  1  0
 24 25  1  0
 25 26  1  0
 26 27  1  0
 27 28  1  0
  5  8  1  1
 11 10  1  1
 14 15  1  0
 20 22  1  0
M  END
