
     RDKit          3D

 23 27  0  0  0  0  0  0  0  0999 V2000
    4.8527    3.7417    4.5380 O   0  0  0  0  0  0  0  0  0  0  0  0
    5.1888    4.6441    3.7810 C   0  0  0  0  0  0  0  0  0  0  0  0
    6.6066    4.7975    3.2267 C   0  0  2  0  0  0  0  0  0  0  0  0
    4.2035    5.6968    3.4553 C   0  0  2  0  0  0  0  0  0  0  0  0
    6.5859    5.5200    1.8328 C   0  0  1  0  0  0  0  0  0  0  0  0
    7.3075    3.4378    3.0592 C   0  0  1  0  0  0  0  0  0  0  0  0
    3.7798    5.6707    2.0831 O   0  0  0  0  0  0  0  0  0  0  0  0
    4.5195    6.8326    2.5190 C   0  0  2  0  0  0  0  0  0  0  0  0
    5.9179    6.9451    1.9180 C   0  0  2  0  0  0  0  0  0  0  0  0
    7.9672    5.5316    1.1234 C   0  0  0  0  0  0  0  0  0  0  0  0
    8.7509    3.6043    2.5319 C   0  0  2  0  0  0  0  0  0  0  0  0
    7.4816    2.4959    4.2536 C   0  0  0  0  0  0  0  0  0  0  0  0
    3.6649    8.0501    2.5024 C   0  0  0  0  0  0  0  0  0  0  0  0
    5.7431    7.5633    0.4967 C   0  0  0  0  0  0  0  0  0  0  0  0
    6.7538    7.9058    2.7998 C   0  0  0  0  0  0  0  0  0  0  0  0
    8.6760    4.1706    1.1209 C   0  0  0  0  0  0  0  0  0  0  0  0
    9.2105    2.1631    2.6440 C   0  0  0  0  0  0  0  0  0  0  0  0
    9.6970    4.4344    3.4211 C   0  0  0  0  0  0  0  0  0  0  0  0
    8.4446    1.4236    3.7218 C   0  0  0  0  0  0  0  0  0  0  0  0
    3.1244    8.4667    3.5175 O   0  0  0  0  0  0  0  0  0  0  0  0
    3.5262    8.6717    1.1362 C   0  0  0  0  0  0  0  0  0  0  0  0
    4.8938    8.8457    0.4794 C   0  0  0  0  0  0  0  0  0  0  0  0
   10.1042    1.6651    1.9729 O   0  0  0  0  0  0  0  0  0  0  0  0
  1  2  2  0
  3  2  1  6
  2  4  1  0
  3  5  1  0
  3  6  1  0
  4  7  1  6
  4  8  1  0
  5  9  1  0
  5 10  1  1
  6 11  1  0
  6 12  1  1
  8 13  1  0
  9 14  1  0
  9 15  1  1
 10 16  1  0
 11 17  1  0
 11 18  1  1
 12 19  1  0
 13 20  2  0
 13 21  1  0
 14 22  1  0
 17 23  2  0
  8  7  1  6
  8  9  1  0
 11 16  1  0
 17 19  1  0
 21 22  1  0
M  END
