
     RDKit          3D

 19 21  0  0  0  0  0  0  0  0999 V2000
    9.7596    0.9841    1.6904 O   0  0  0  0  0  0  0  0  0  0  0  0
    9.1692    1.9602    2.1350 C   0  0  0  0  0  0  0  0  0  0  0  0
    9.0987    3.2267    1.3797 C   0  0  0  0  0  0  0  0  0  0  0  0
    8.4818    1.9133    3.4382 C   0  0  0  0  0  0  0  0  0  0  0  0
    8.4827    4.3164    1.8725 C   0  0  0  0  0  0  0  0  0  0  0  0
    7.8693    2.9965    3.9347 C   0  0  0  0  0  0  0  0  0  0  0  0
    7.8180    4.3632    3.2577 C   0  0  2  0  0  0  0  0  0  0  0  0
    8.3616    5.5604    1.0257 C   0  0  0  0  0  0  0  0  0  0  0  0
    6.3251    4.8126    3.0602 C   0  0  2  0  0  0  0  0  0  0  0  0
    8.6056    5.3352    4.1638 C   0  0  0  0  0  0  0  0  0  0  0  0
    6.8960    5.9521    0.8585 C   0  0  0  0  0  0  0  0  0  0  0  0
    6.2054    6.1140    2.2188 C   0  0  1  0  0  0  0  0  0  0  0  0
    5.4808    4.9052    4.3574 C   0  0  0  0  0  0  0  0  0  0  0  0
    4.7231    6.4743    2.0446 C   0  0  0  0  0  0  0  0  0  0  0  0
    4.8608    6.2808    4.5962 C   0  0  0  0  0  0  0  0  0  0  0  0
    4.0360    6.8102    3.3964 C   0  0  2  0  0  0  0  0  0  0  0  0
    2.6126    6.2019    3.4361 C   0  0  0  0  0  0  0  0  0  0  0  0
    3.9243    8.3442    3.5372 C   0  0  0  0  0  0  0  0  0  0  0  0
    2.2593    5.7495    4.7378 O   0  0  0  0  0  0  0  0  0  0  0  0
  1  2  2  0
  2  3  1  0
  2  4  1  0
  3  5  2  0
  4  6  2  0
  5  7  1  0
  5  8  1  0
  7  9  1  0
  7 10  1  1
  8 11  1  0
  9 12  1  0
  9 13  1  1
 12 14  1  6
 13 15  1  0
 14 16  1  0
 16 17  1  0
 16 18  1  1
 17 19  1  0
  6  7  1  0
 11 12  1  0
 15 16  1  0
M  END
