
     RDKit          3D

 24 27  0  0  0  0  0  0  0  0999 V2000
    5.8994    8.0181    0.2626 O   0  0  0  0  0  0  0  0  0  0  0  0
    6.2555    7.1094    1.2095 C   0  0  0  0  0  0  0  0  0  0  0  0
    4.4893    7.7376    0.1333 C   0  0  0  0  0  0  0  0  0  0  0  0
    5.1968    6.3373    1.6200 C   0  0  0  0  0  0  0  0  0  0  0  0
    7.5200    6.9408    1.7264 C   0  0  0  0  0  0  0  0  0  0  0  0
    4.0412    6.6591    0.9802 O   0  0  0  0  0  0  0  0  0  0  0  0
    5.3397    5.3516    2.5749 C   0  0  0  0  0  0  0  0  0  0  0  0
    7.6888    5.9478    2.6946 C   0  0  0  0  0  0  0  0  0  0  0  0
    6.6138    5.1418    3.1425 C   0  0  0  0  0  0  0  0  0  0  0  0
    8.9281    5.7406    3.2362 O   0  0  0  0  0  0  0  0  0  0  0  0
    6.8687    4.0502    4.1839 C   0  0  1  0  0  0  0  0  0  0  0  0
    5.6753    3.7796    5.0076 N   0  0  0  0  0  0  0  0  0  0  0  0
    7.5017    2.7665    3.6450 C   0  0  0  0  0  0  0  0  0  0  0  0
    5.0672    2.5535    5.1017 C   0  0  0  0  0  0  0  0  0  0  0  0
    4.9615    4.6424    5.7981 C   0  0  0  0  0  0  0  0  0  0  0  0
    8.3471    2.8376    2.5250 C   0  0  0  0  0  0  0  0  0  0  0  0
    7.3026    1.5101    4.2406 C   0  0  0  0  0  0  0  0  0  0  0  0
    4.0220    2.5892    5.8964 N   0  0  0  0  0  0  0  0  0  0  0  0
    3.9461    3.8849    6.3332 C   0  0  0  0  0  0  0  0  0  0  0  0
    8.9585    1.6889    2.0157 C   0  0  0  0  0  0  0  0  0  0  0  0
    7.9173    0.3605    3.7267 C   0  0  0  0  0  0  0  0  0  0  0  0
    8.7475    0.4452    2.6109 C   0  0  0  0  0  0  0  0  0  0  0  0
    9.4045   -0.5945    2.0138 O   0  0  0  0  0  0  0  0  0  0  0  0
   10.8064   -0.6808    2.2349 C   0  0  0  0  0  0  0  0  0  0  0  0
  1  2  1  0
  1  3  1  0
  2  4  4  0
  2  5  4  0
  3  6  1  0
  4  7  4  0
  5  8  4  0
  7  9  4  0
  8 10  1  0
 11  9  1  6
 11 12  1  0
 11 13  1  0
 12 14  4  0
 12 15  4  0
 13 16  4  0
 13 17  4  0
 14 18  4  0
 15 19  4  0
 16 20  4  0
 17 21  4  0
 20 22  4  0
 22 23  1  0
 23 24  1  0
  4  6  1  0
  8  9  4  0
 18 19  4  0
 21 22  4  0
M  END
