
     RDKit          3D

 20 22  0  0  0  0  0  0  0  0999 V2000
    9.5955    8.3908   11.1384 N   0  0  0  0  0  0  0  0  0  0  0  0
    8.2958    8.4992   11.4833 N   0  0  0  0  0  0  0  0  0  0  0  0
   10.0335    7.5132   12.0450 C   0  0  0  0  0  0  0  0  0  0  0  0
    8.0201    7.7387   12.5787 C   0  0  0  0  0  0  0  0  0  0  0  0
    7.4132    9.4261   10.7896 C   0  0  0  0  0  0  0  0  0  0  0  0
    9.1027    7.0969   12.9537 N   0  0  0  0  0  0  0  0  0  0  0  0
    8.1455   10.4606    9.9563 C   0  0  0  0  0  0  0  0  0  0  0  0
    7.3625   11.6587    9.5750 C   0  0  0  0  0  0  0  0  0  0  0  0
    9.4290   10.2603    9.5848 C   0  0  0  0  0  0  0  0  0  0  0  0
    6.1739   11.9786   10.2468 C   0  0  0  0  0  0  0  0  0  0  0  0
    7.7818   12.4795    8.5192 C   0  0  0  0  0  0  0  0  0  0  0  0
   10.2693   11.1304    8.7493 C   0  0  0  0  0  0  0  0  0  0  0  0
    5.4263   13.0985    9.8763 C   0  0  0  0  0  0  0  0  0  0  0  0
    7.0324   13.5989    8.1488 C   0  0  0  0  0  0  0  0  0  0  0  0
    9.6725   11.8669    7.7187 C   0  0  0  0  0  0  0  0  0  0  0  0
   11.6404   11.2799    8.9876 C   0  0  0  0  0  0  0  0  0  0  0  0
    5.8557   13.9079    8.8274 C   0  0  0  0  0  0  0  0  0  0  0  0
   10.4404   12.7200    6.9229 C   0  0  0  0  0  0  0  0  0  0  0  0
   12.4077   12.1321    8.1905 C   0  0  0  0  0  0  0  0  0  0  0  0
   11.8079   12.8503    7.1577 C   0  0  0  0  0  0  0  0  0  0  0  0
  1  2  4  0
  1  3  4  0
  2  4  4  0
  2  5  1  0
  3  6  4  0
  5  7  1  0
  7  8  1  0
  7  9  2  0
  8 10  4  0
  8 11  4  0
  9 12  1  0
 10 13  4  0
 11 14  4  0
 12 15  4  0
 12 16  4  0
 13 17  4  0
 15 18  4  0
 16 19  4  0
 18 20  4  0
  4  6  4  0
 14 17  4  0
 19 20  4  0
M  END
