
     RDKit          3D

 15 17  0  0  0  0  0  0  0  0999 V2000
    4.2226    8.3663    1.3809 O   0  0  0  0  0  0  0  0  0  0  0  0
    4.6890    7.3088    1.7910 C   0  0  0  0  0  0  0  0  0  0  0  0
    6.1305    6.9904    1.6022 C   0  0  0  0  0  0  0  0  0  0  0  0
    3.8196    6.3152    2.4902 C   0  0  0  0  0  0  0  0  0  0  0  0
    6.6022    5.8296    2.0619 C   0  0  0  0  0  0  0  0  0  0  0  0
    4.3182    5.1547    2.9433 C   0  0  0  0  0  0  0  0  0  0  0  0
    7.8500    5.2701    2.0385 N   0  0  0  0  0  0  0  0  0  0  0  0
    5.7153    4.8778    2.7446 C   0  0  0  0  0  0  0  0  0  0  0  0
    7.8440    4.0456    2.6443 C   0  0  0  0  0  0  0  0  0  0  0  0
    6.4529    3.8047    3.0971 C   0  0  0  0  0  0  0  0  0  0  0  0
    8.7670    3.0932    2.8927 C   0  0  0  0  0  0  0  0  0  0  0  0
    6.0908    2.5828    3.7872 C   0  0  0  0  0  0  0  0  0  0  0  0
    8.3829    1.9259    3.5610 N   0  0  0  0  0  0  0  0  0  0  0  0
   10.2043    3.2162    2.4869 C   0  0  0  0  0  0  0  0  0  0  0  0
    7.0859    1.6978    3.9850 C   0  0  0  0  0  0  0  0  0  0  0  0
  1  2  2  0
  2  3  4  0
  2  4  4  0
  3  5  4  0
  4  6  4  0
  5  7  4  0
  5  8  4  0
  7  9  4  0
  8 10  4  0
  9 11  4  0
 10 12  4  0
 11 13  4  0
 11 14  1  0
 12 15  4  0
  6  8  4  0
  9 10  4  0
 13 15  4  0
M  END
