
     RDKit          3D

 25 27  0  0  0  0  0  0  0  0999 V2000
    2.9802   -1.4435    3.8122 F   0  0  0  0  0  0  0  0  0  0  0  0
    3.7658   -0.3907    4.0745 C   0  0  0  0  0  0  0  0  0  0  0  0
    4.1784    0.4305    3.0328 C   0  0  0  0  0  0  0  0  0  0  0  0
    4.1533   -0.1341    5.3832 C   0  0  0  0  0  0  0  0  0  0  0  0
    4.9976    1.5275    3.3035 C   0  0  0  0  0  0  0  0  0  0  0  0
    4.9723    0.9625    5.6569 C   0  0  0  0  0  0  0  0  0  0  0  0
    5.4090    1.8041    4.6199 C   0  0  0  0  0  0  0  0  0  0  0  0
    6.3158    2.9908    4.9349 C   0  0  2  0  0  0  0  0  0  0  0  0
    5.5013    4.1812    4.9993 O   0  0  0  0  0  0  0  0  0  0  0  0
    7.3980    3.1879    3.8299 C   0  0  2  0  0  0  0  0  0  0  0  0
    4.1842    4.0014    4.6929 C   0  0  0  0  0  0  0  0  0  0  0  0
    7.2338    4.4658    3.0104 C   0  0  0  0  0  0  0  0  0  0  0  0
    7.5884    1.9591    2.9134 C   0  0  0  0  0  0  0  0  0  0  0  0
    3.6953    4.0450    3.5733 O   0  0  0  0  0  0  0  0  0  0  0  0
    3.4031    3.7537    5.9466 C   0  0  0  0  0  0  0  0  0  0  0  0
    7.8435    4.6343    1.7574 C   0  0  0  0  0  0  0  0  0  0  0  0
    6.4639    5.5212    3.5263 C   0  0  0  0  0  0  0  0  0  0  0  0
    8.8409    1.8929    2.1985 N   0  0  0  0  0  0  0  0  0  0  0  0
    7.6834    5.8219    1.0407 C   0  0  0  0  0  0  0  0  0  0  0  0
    6.3045    6.7070    2.8071 C   0  0  0  0  0  0  0  0  0  0  0  0
    9.0098    1.0080    1.2022 N   0  0  0  0  0  0  0  0  0  0  0  0
    9.9893    2.5842    2.4448 C   0  0  0  0  0  0  0  0  0  0  0  0
    6.9142    6.8572    1.5647 C   0  0  0  0  0  0  0  0  0  0  0  0
   10.2530    1.1383    0.7597 N   0  0  0  0  0  0  0  0  0  0  0  0
   10.8702    2.0973    1.5105 C   0  0  0  0  0  0  0  0  0  0  0  0
  1  2  1  0
  2  3  4  0
  2  4  4  0
  3  5  4  0
  4  6  4  0
  5  7  4  0
  7  8  1  0
  8  9  1  6
  8 10  1  0
  9 11  1  0
 10 12  1  0
 10 13  1  6
 11 14  2  0
 11 15  1  0
 12 16  4  0
 12 17  4  0
 13 18  1  0
 16 19  4  0
 17 20  4  0
 18 21  4  0
 18 22  4  0
 19 23  4  0
 21 24  4  0
 22 25  4  0
  6  7  4  0
 20 23  4  0
 24 25  4  0
M  END
