
     RDKit          3D

 22 26  0  0  0  0  0  0  0  0999 V2000
    3.1775    7.7331    2.4325 O   0  0  0  0  0  0  0  0  0  0  0  0
    3.9293    6.8718    2.8766 C   0  0  0  0  0  0  0  0  0  0  0  0
    5.3268    6.7664    2.3755 C   0  0  0  0  0  0  0  0  0  0  0  0
    3.5343    5.9171    3.9911 C   0  0  1  0  0  0  0  0  0  0  0  0
    6.1136    5.7912    2.8727 C   0  0  0  0  0  0  0  0  0  0  0  0
    4.0440    4.5421    3.5890 C   0  0  0  0  0  0  0  0  0  0  0  0
    4.3149    6.2306    5.2757 C   0  0  0  0  0  0  0  0  0  0  0  0
    5.5690    4.7003    3.8058 C   0  0  2  0  0  0  0  0  0  0  0  0
    7.5970    5.8417    2.6572 C   0  0  0  0  0  0  0  0  0  0  0  0
    5.5587    5.3148    5.2350 C   0  0  0  0  0  0  0  0  0  0  0  0
    6.3312    3.3317    3.7505 C   0  0  2  0  0  0  0  0  0  0  0  0
    8.1552    4.4763    2.3271 C   0  0  0  0  0  0  0  0  0  0  0  0
    7.8612    3.4395    3.4261 C   0  0  2  0  0  0  0  0  0  0  0  0
    5.6915    2.2236    2.8715 C   0  0  0  0  0  0  0  0  0  0  0  0
    8.4186    2.0861    2.9414 C   0  0  2  0  0  0  0  0  0  0  0  0
    6.2959    0.8201    3.1460 C   0  0  0  0  0  0  0  0  0  0  0  0
    7.7605    0.8661    3.6004 C   0  0  1  0  0  0  0  0  0  0  0  0
    9.9177    1.8305    3.0536 C   0  0  0  0  0  0  0  0  0  0  0  0
    8.6691   -0.2085    3.0197 C   0  0  0  0  0  0  0  0  0  0  0  0
    7.9141    0.7587    5.1281 C   0  0  0  0  0  0  0  0  0  0  0  0
   10.0361    0.3511    2.6610 C   0  0  0  0  0  0  0  0  0  0  0  0
    8.3577   -1.3844    2.8837 O   0  0  0  0  0  0  0  0  0  0  0  0
  1  2  2  0
  2  3  1  0
  2  4  1  0
  3  5  2  0
  4  6  1  0
  4  7  1  1
  5  8  1  0
  5  9  1  0
  7 10  1  0
  8 11  1  0
  9 12  1  0
 11 13  1  0
 11 14  1  6
 13 15  1  0
 14 16  1  0
 15 17  1  0
 15 18  1  1
 17 19  1  0
 17 20  1  1
 18 21  1  0
 19 22  2  0
  8  6  1  0
  8 10  1  1
 13 12  1  6
 16 17  1  0
 19 21  1  0
M  END
