
     RDKit          3D

 20 22  0  0  0  0  0  0  0  0999 V2000
    5.5145    0.2919    1.7644 N   0  0  0  0  0  0  0  0  0  0  0  0
    5.2399   -1.0056    1.7288 N   0  0  0  0  0  0  0  0  0  0  0  0
    4.8643    0.8148    2.8217 N   0  0  0  0  0  0  0  0  0  0  0  0
    4.4212   -1.2934    2.7833 C   0  0  0  0  0  0  0  0  0  0  0  0
    4.1761   -0.1488    3.5010 C   0  0  0  0  0  0  0  0  0  0  0  0
    4.9849    2.2282    3.1482 C   0  0  0  0  0  0  0  0  0  0  0  0
    6.4073    2.6321    3.4677 C   0  0  0  0  0  0  0  0  0  0  0  0
    7.2711    1.5793    4.0366 C   0  0  0  0  0  0  0  0  0  0  0  0
    6.9673    3.8352    3.2311 C   0  0  0  0  0  0  0  0  0  0  0  0
    8.5463    1.3510    3.5033 C   0  0  0  0  0  0  0  0  0  0  0  0
    6.8299    0.8027    5.1151 C   0  0  0  0  0  0  0  0  0  0  0  0
    6.2732    4.9866    2.6500 C   0  0  0  0  0  0  0  0  0  0  0  0
    9.3711    0.3650    4.0470 C   0  0  0  0  0  0  0  0  0  0  0  0
    7.6564   -0.1842    5.6561 C   0  0  0  0  0  0  0  0  0  0  0  0
    4.9786    5.2989    3.0784 C   0  0  0  0  0  0  0  0  0  0  0  0
    6.8770    5.7688    1.6596 C   0  0  0  0  0  0  0  0  0  0  0  0
    8.9262   -0.4013    5.1231 C   0  0  0  0  0  0  0  0  0  0  0  0
    4.3014    6.3914    2.5324 C   0  0  0  0  0  0  0  0  0  0  0  0
    6.1995    6.8620    1.1166 C   0  0  0  0  0  0  0  0  0  0  0  0
    4.9129    7.1734    1.5535 C   0  0  0  0  0  0  0  0  0  0  0  0
  1  2  4  0
  1  3  4  0
  2  4  4  0
  3  5  4  0
  3  6  1  0
  6  7  1  0
  7  8  1  0
  7  9  2  0
  8 10  4  0
  8 11  4  0
  9 12  1  0
 10 13  4  0
 11 14  4  0
 12 15  4  0
 12 16  4  0
 13 17  4  0
 15 18  4  0
 16 19  4  0
 18 20  4  0
  4  5  4  0
 14 17  4  0
 19 20  4  0
M  END
