
     RDKit          3D

 25 27  0  0  0  0  0  0  0  0999 V2000
    3.6180   -1.8849    4.4038 F   0  0  0  0  0  0  0  0  0  0  0  0
    4.0918   -0.6329    4.4477 C   0  0  0  0  0  0  0  0  0  0  0  0
    4.4289   -0.0705    5.6719 C   0  0  0  0  0  0  0  0  0  0  0  0
    4.2403    0.0837    3.2670 C   0  0  0  0  0  0  0  0  0  0  0  0
    4.9229    1.2341    5.7186 C   0  0  0  0  0  0  0  0  0  0  0  0
    4.7360    1.3877    3.3101 C   0  0  0  0  0  0  0  0  0  0  0  0
    5.0820    1.9809    4.5380 C   0  0  0  0  0  0  0  0  0  0  0  0
    5.6460    3.3977    4.6040 C   0  0  0  0  0  0  0  0  0  0  0  0
    4.7305    4.2235    3.8468 O   0  0  0  0  0  0  0  0  0  0  0  0
    7.0844    3.4845    4.0124 C   0  0  2  0  0  0  0  0  0  0  0  0
    4.1007    5.2160    4.5300 C   0  0  0  0  0  0  0  0  0  0  0  0
    7.2665    4.7681    3.2065 C   0  0  0  0  0  0  0  0  0  0  0  0
    7.4336    2.2228    3.1943 C   0  0  0  0  0  0  0  0  0  0  0  0
    4.1683    6.4068    4.2661 O   0  0  0  0  0  0  0  0  0  0  0  0
    3.2697    4.6352    5.6320 C   0  0  0  0  0  0  0  0  0  0  0  0
    6.4871    5.0447    2.0723 C   0  0  0  0  0  0  0  0  0  0  0  0
    8.2191    5.7151    3.6151 C   0  0  0  0  0  0  0  0  0  0  0  0
    8.7603    2.2439    2.6115 N   0  0  0  0  0  0  0  0  0  0  0  0
    6.6637    6.2337    1.3626 C   0  0  0  0  0  0  0  0  0  0  0  0
    8.3905    6.9042    2.9050 C   0  0  0  0  0  0  0  0  0  0  0  0
    9.0350    1.5077    1.5213 N   0  0  0  0  0  0  0  0  0  0  0  0
    9.8786    2.8652    3.0832 C   0  0  0  0  0  0  0  0  0  0  0  0
    7.6141    7.1627    1.7785 C   0  0  0  0  0  0  0  0  0  0  0  0
   10.3211    1.6735    1.2421 N   0  0  0  0  0  0  0  0  0  0  0  0
   10.8541    2.5032    2.1862 C   0  0  0  0  0  0  0  0  0  0  0  0
  1  2  1  0
  2  3  4  0
  2  4  4  0
  3  5  4  0
  4  6  4  0
  5  7  4  0
  7  8  1  0
  8  9  1  0
  8 10  1  0
  9 11  1  0
 10 12  1  0
 10 13  1  6
 11 14  2  0
 11 15  1  0
 12 16  4  0
 12 17  4  0
 13 18  1  0
 16 19  4  0
 17 20  4  0
 18 21  4  0
 18 22  4  0
 19 23  4  0
 21 24  4  0
 22 25  4  0
  6  7  4  0
 20 23  4  0
 24 25  4  0
M  END
