
     RDKit          3D

 22 25  0  0  0  0  0  0  0  0999 V2000
    3.4831    8.2439    1.8970 O   0  0  0  0  0  0  0  0  0  0  0  0
    4.0812    7.2465    2.2788 C   0  0  0  0  0  0  0  0  0  0  0  0
    5.5499    7.2350    2.4199 C   0  0  0  0  0  0  0  0  0  0  0  0
    3.3734    5.9817    2.5493 C   0  0  0  0  0  0  0  0  0  0  0  0
    6.1957    6.1911    2.9703 C   0  0  0  0  0  0  0  0  0  0  0  0
    4.0084    4.9532    3.1284 C   0  0  0  0  0  0  0  0  0  0  0  0
    7.6440    6.1471    2.8577 C   0  0  0  0  0  0  0  0  0  0  0  0
    5.4669    4.9910    3.6171 C   0  0  1  0  0  0  0  0  0  0  0  0
    8.3586    5.0318    3.0521 C   0  0  0  0  0  0  0  0  0  0  0  0
    6.2041    3.6790    3.1668 C   0  0  0  0  0  0  0  0  0  0  0  0
    5.3120    5.1774    5.1638 C   0  0  0  0  0  0  0  0  0  0  0  0
    7.7483    3.7154    3.4341 C   0  0  1  0  0  0  0  0  0  0  0  0
    5.6032    2.3411    3.6770 C   0  0  0  0  0  0  0  0  0  0  0  0
    4.2693    4.3723    5.9242 C   0  0  0  0  0  0  0  0  0  0  0  0
    8.3552    2.5062    2.7115 C   0  0  2  0  0  0  0  0  0  0  0  0
    6.3265    1.1062    3.0961 C   0  0  0  0  0  0  0  0  0  0  0  0
    7.8339    1.1841    3.3250 C   0  0  1  0  0  0  0  0  0  0  0  0
    9.8668    2.3094    2.6490 C   0  0  0  0  0  0  0  0  0  0  0  0
    8.6991    0.2238    2.5299 C   0  0  0  0  0  0  0  0  0  0  0  0
    8.1731    0.9422    4.8092 C   0  0  0  0  0  0  0  0  0  0  0  0
    9.9988    0.8815    2.0959 C   0  0  0  0  0  0  0  0  0  0  0  0
    8.4081   -0.9402    2.2904 O   0  0  0  0  0  0  0  0  0  0  0  0
  1  2  2  0
  2  3  1  0
  2  4  1  0
  3  5  2  0
  4  6  2  0
  5  7  1  0
  5  8  1  0
  7  9  2  0
  8 10  1  0
  8 11  1  1
 12  9  1  6
 10 13  1  0
 11 14  1  0
 12 15  1  0
 13 16  1  0
 15 17  1  0
 15 18  1  1
 17 19  1  0
 17 20  1  1
 18 21  1  0
 19 22  2  0
  6  8  1  0
 10 12  1  0
 16 17  1  0
 19 21  1  0
M  END
