
     RDKit          3D

 40 43  0  0  0  0  0  0  0  0999 V2000
    9.1553   -2.2622    0.1407 F   0  0  0  0  0  0  0  0  0  0  0  0
    9.1015   -3.3521    0.9595 C   0  0  0  0  0  0  0  0  0  0  0  0
    8.9133   -4.4311    0.1435 F   0  0  0  0  0  0  0  0  0  0  0  0
   10.3574   -3.4902    1.4732 F   0  0  0  0  0  0  0  0  0  0  0  0
    8.0304   -3.2436    2.0213 C   0  0  0  0  0  0  0  0  0  0  0  0
    8.2756   -2.5494    3.2152 C   0  0  0  0  0  0  0  0  0  0  0  0
    6.7886   -3.8700    1.8473 C   0  0  0  0  0  0  0  0  0  0  0  0
    7.2933   -2.4708    4.2061 C   0  0  0  0  0  0  0  0  0  0  0  0
    5.8080   -3.7992    2.8426 C   0  0  0  0  0  0  0  0  0  0  0  0
    6.0458   -3.0969    4.0334 C   0  0  0  0  0  0  0  0  0  0  0  0
    4.9684   -3.0709    5.1264 C   0  0  2  0  0  0  0  0  0  0  0  0
    4.5127   -1.6880    5.4739 N   0  0  0  0  0  0  0  0  0  0  0  0
    5.4209   -3.8662    6.3990 C   0  0  0  0  0  0  0  0  0  0  0  0
    4.7133   -0.7370    4.3506 C   0  0  0  0  0  0  0  0  0  0  0  0
    5.2178   -1.1687    6.6645 C   0  0  0  0  0  0  0  0  0  0  0  0
    4.7264   -3.8808    7.4209 O   0  0  0  0  0  0  0  0  0  0  0  0
    6.6435   -4.5029    6.3449 N   0  0  0  0  0  0  0  0  0  0  0  0
    4.8267    0.7616    4.7424 C   0  0  0  0  0  0  0  0  0  0  0  0
    4.7480    0.2522    7.0925 C   0  0  0  0  0  0  0  0  0  0  0  0
    7.7700   -4.1182    7.1624 C   0  0  0  0  0  0  0  0  0  0  0  0
    4.1611    1.0673    6.0135 N   0  0  0  0  0  0  0  0  0  0  0  0
    9.0706   -4.4619    6.4824 C   0  0  0  0  0  0  0  0  0  0  0  0
    4.1960    2.5063    6.3122 C   0  0  0  0  0  0  0  0  0  0  0  0
    9.9453   -3.4414    6.0782 C   0  0  0  0  0  0  0  0  0  0  0  0
    9.4386   -5.7962    6.2608 C   0  0  0  0  0  0  0  0  0  0  0  0
    4.1449    3.4279    5.0714 C   0  0  1  0  0  0  0  0  0  0  0  0
   11.1560   -3.7502    5.4574 C   0  0  0  0  0  0  0  0  0  0  0  0
   10.6542   -6.1026    5.6459 C   0  0  0  0  0  0  0  0  0  0  0  0
    3.2801    4.5426    5.3523 O   0  0  0  0  0  0  0  0  0  0  0  0
    5.5234    3.9645    4.6621 C   0  0  0  0  0  0  0  0  0  0  0  0
   11.5088   -5.0802    5.2399 C   0  0  0  0  0  0  0  0  0  0  0  0
    5.6731    3.8110    3.2370 O   0  0  0  0  0  0  0  0  0  0  0  0
    6.1761    4.9660    2.6904 C   0  0  0  0  0  0  0  0  0  0  0  0
    5.2945    6.0020    2.3401 C   0  0  0  0  0  0  0  0  0  0  0  0
    7.5671    5.1126    2.5564 C   0  0  0  0  0  0  0  0  0  0  0  0
    5.8213    7.1659    1.7670 C   0  0  0  0  0  0  0  0  0  0  0  0
    3.8106    5.8698    2.5233 C   0  0  0  0  0  0  0  0  0  0  0  0
    8.0642    6.2883    1.9796 C   0  0  0  0  0  0  0  0  0  0  0  0
    8.5185    4.0272    2.9720 C   0  0  0  0  0  0  0  0  0  0  0  0
    7.1964    7.3057    1.5838 C   0  0  0  0  0  0  0  0  0  0  0  0
  1  2  1  0
  2  3  1  0
  2  4  1  0
  2  5  1  0
  5  6  4  0
  5  7  4  0
  6  8  4  0
  7  9  4  0
  8 10  4  0
 11 10  1  6
 11 12  1  0
 11 13  1  0
 12 14  1  0
 12 15  1  0
 13 16  2  0
 13 17  1  0
 14 18  1  0
 15 19  1  0
 17 20  1  0
 18 21  1  0
 20 22  1  0
 21 23  1  0
 22 24  4  0
 22 25  4  0
 23 26  1  0
 24 27  4  0
 25 28  4  0
 26 29  1  1
 26 30  1  0
 27 31  4  0
 30 32  1  0
 32 33  1  0
 33 34  4  0
 33 35  4  0
 34 36  4  0
 34 37  1  0
 35 38  4  0
 35 39  1  0
 36 40  4  0
  9 10  4  0
 19 21  1  0
 28 31  4  0
 38 40  4  0
M  END
