
     RDKit          3D

 28 32  0  0  0  0  0  0  0  0999 V2000
    6.0847    7.5920    3.0190 S   0  0  0  0  0  0  0  0  0  0  0  0
    5.5058    6.0041    3.4474 C   0  0  0  0  0  0  0  0  0  0  0  0
    5.4067    7.6811    1.3700 C   0  0  0  0  0  0  0  0  0  0  0  0
    4.0365    5.7765    3.2377 C   0  0  0  0  0  0  0  0  0  0  0  0
    6.2920    4.9722    3.8362 C   0  0  0  0  0  0  0  0  0  0  0  0
    4.1540    8.2664    1.1646 C   0  0  0  0  0  0  0  0  0  0  0  0
    6.1080    7.1696    0.2743 C   0  0  0  0  0  0  0  0  0  0  0  0
    3.2050    6.6739    3.1420 O   0  0  0  0  0  0  0  0  0  0  0  0
    3.6022    4.3726    3.0633 C   0  0  0  0  0  0  0  0  0  0  0  0
    7.7577    5.0548    3.8072 C   0  0  0  0  0  0  0  0  0  0  0  0
    5.7094    3.5672    4.1659 C   0  0  1  0  0  0  0  0  0  0  0  0
    3.6181    8.3593   -0.1213 C   0  0  0  0  0  0  0  0  0  0  0  0
    5.5737    7.2645   -1.0132 C   0  0  0  0  0  0  0  0  0  0  0  0
    4.3817    3.3601    3.4632 C   0  0  0  0  0  0  0  0  0  0  0  0
    8.4611    4.0672    3.2258 C   0  0  0  0  0  0  0  0  0  0  0  0
    6.7680    2.4405    3.8550 C   0  0  0  0  0  0  0  0  0  0  0  0
    5.4027    3.5277    5.6875 C   0  0  0  0  0  0  0  0  0  0  0  0
    4.3310    7.8654   -1.2104 C   0  0  0  0  0  0  0  0  0  0  0  0
    7.7112    2.8725    2.6989 C   0  0  2  0  0  0  0  0  0  0  0  0
    6.2768    0.9916    3.6685 C   0  0  0  0  0  0  0  0  0  0  0  0
    8.4852    1.6739    2.1459 C   0  0  2  0  0  0  0  0  0  0  0  0
    7.4465   -0.0271    3.6647 C   0  0  0  0  0  0  0  0  0  0  0  0
    8.7801    0.5647    3.1697 C   0  0  1  0  0  0  0  0  0  0  0  0
    9.7847    1.8717    1.3743 C   0  0  0  0  0  0  0  0  0  0  0  0
    9.6014   -0.3441    2.2626 C   0  0  0  0  0  0  0  0  0  0  0  0
    9.7107    0.9460    4.3358 C   0  0  0  0  0  0  0  0  0  0  0  0
   10.2490    0.4300    1.1255 C   0  0  0  0  0  0  0  0  0  0  0  0
    9.7452   -1.5485    2.4324 O   0  0  0  0  0  0  0  0  0  0  0  0
  1  2  1  0
  1  3  1  0
  2  4  1  0
  2  5  2  0
  3  6  4  0
  3  7  4  0
  4  8  2  0
  4  9  1  0
  5 10  1  0
  5 11  1  0
  6 12  4  0
  7 13  4  0
  9 14  2  0
 10 15  2  0
 11 16  1  0
 11 17  1  1
 12 18  4  0
 19 15  1  1
 16 20  1  0
 19 21  1  0
 20 22  1  0
 21 23  1  0
 21 24  1  1
 23 25  1  0
 23 26  1  1
 24 27  1  0
 25 28  2  0
 11 14  1  0
 13 18  4  0
 16 19  1  0
 22 23  1  0
 25 27  1  0
M  END
