
     RDKit          3D

 35 38  0  0  0  0  0  0  0  0999 V2000
    4.7877    8.3285    1.0420 F   0  0  0  0  0  0  0  0  0  0  0  0
    4.7209    7.2310    1.8070 C   0  0  0  0  0  0  0  0  0  0  0  0
    5.8300    6.4003    1.9130 C   0  0  0  0  0  0  0  0  0  0  0  0
    3.5393    6.9373    2.4791 C   0  0  0  0  0  0  0  0  0  0  0  0
    5.7582    5.2567    2.7107 C   0  0  0  0  0  0  0  0  0  0  0  0
    3.4626    5.7940    3.2787 C   0  0  0  0  0  0  0  0  0  0  0  0
    4.5784    4.9541    3.4067 C   0  0  0  0  0  0  0  0  0  0  0  0
    4.5549    3.7276    4.2527 C   0  0  0  0  0  0  0  0  0  0  0  0
    4.3017    3.8100    5.4485 O   0  0  0  0  0  0  0  0  0  0  0  0
    4.7810    2.5310    3.6028 N   0  0  0  0  0  0  0  0  0  0  0  0
    5.8999    1.6748    3.9892 C   0  0  0  0  0  0  0  0  0  0  0  0
    5.6350    0.8801    5.3073 C   0  0  0  0  0  0  0  0  0  0  0  0
    6.8966    0.3722    5.8864 N   0  0  0  0  0  0  0  0  0  0  0  0
    4.5221   -0.1627    5.1528 C   0  0  0  0  0  0  0  0  0  0  0  0
    8.0351    0.1993    4.9832 C   0  0  0  0  0  0  0  0  0  0  0  0
    6.7134   -0.7609    6.8094 C   0  0  0  0  0  0  0  0  0  0  0  0
    4.5109   -0.9998    4.0252 C   0  0  0  0  0  0  0  0  0  0  0  0
    3.5064   -0.3340    6.1093 C   0  0  0  0  0  0  0  0  0  0  0  0
    8.2899   -1.2287    4.4211 C   0  0  0  0  0  0  0  0  0  0  0  0
    7.7414   -1.9075    6.6745 C   0  0  0  0  0  0  0  0  0  0  0  0
    3.5189   -1.9672    3.8563 C   0  0  0  0  0  0  0  0  0  0  0  0
    2.5151   -1.3037    5.9406 C   0  0  0  0  0  0  0  0  0  0  0  0
    7.8275   -2.3340    5.2758 N   0  0  0  0  0  0  0  0  0  0  0  0
    2.5207   -2.1180    4.8137 C   0  0  0  0  0  0  0  0  0  0  0  0
    8.5691   -3.5916    5.1069 C   0  0  0  0  0  0  0  0  0  0  0  0
    9.7216   -3.7980    6.1271 C   0  0  0  0  0  0  0  0  0  0  0  0
   10.3626   -5.0712    5.9408 O   0  0  0  0  0  0  0  0  0  0  0  0
   10.7935   -2.7024    5.9970 C   0  0  0  0  0  0  0  0  0  0  0  0
   11.3374   -2.7079    4.6786 O   0  0  0  0  0  0  0  0  0  0  0  0
   12.5934   -3.2237    4.5215 C   0  0  0  0  0  0  0  0  0  0  0  0
   13.1415   -3.0428    3.2488 C   0  0  0  0  0  0  0  0  0  0  0  0
   13.3370   -3.8911    5.4955 C   0  0  0  0  0  0  0  0  0  0  0  0
   14.4192   -3.5177    2.9499 C   0  0  0  0  0  0  0  0  0  0  0  0
   14.6162   -4.3703    5.1963 C   0  0  0  0  0  0  0  0  0  0  0  0
   15.1575   -4.1826    3.9256 C   0  0  0  0  0  0  0  0  0  0  0  0
  1  2  1  0
  2  3  4  0
  2  4  4  0
  3  5  4  0
  4  6  4  0
  5  7  4  0
  7  8  1  0
  8  9  2  0
  8 10  1  0
 10 11  1  0
 11 12  1  0
 12 13  1  0
 12 14  1  0
 13 15  1  0
 13 16  1  0
 14 17  4  0
 14 18  4  0
 15 19  1  0
 16 20  1  0
 17 21  4  0
 18 22  4  0
 19 23  1  0
 21 24  4  0
 23 25  1  0
 25 26  1  0
 26 27  1  0
 26 28  1  0
 28 29  1  0
 29 30  1  0
 30 31  4  0
 30 32  4  0
 31 33  4  0
 32 34  4  0
 33 35  4  0
  6  7  4  0
 20 23  1  0
 22 24  4  0
 34 35  4  0
M  END
