
     RDKit          3D

 21 24  0  0  0  0  0  0  0  0999 V2000
    2.5040    6.3997    4.4904 Cl  0  0  0  0  0  0  0  0  0  0  0  0
    4.0041    6.2516    3.6483 C   0  0  0  0  0  0  0  0  0  0  0  0
    4.3578    7.1365    2.6333 C   0  0  0  0  0  0  0  0  0  0  0  0
    4.8743    5.2181    4.0080 C   0  0  0  0  0  0  0  0  0  0  0  0
    3.5087    8.1465    2.2737 O   0  0  0  0  0  0  0  0  0  0  0  0
    5.5824    6.9950    1.9855 C   0  0  0  0  0  0  0  0  0  0  0  0
    6.1074    5.0398    3.3535 C   0  0  0  0  0  0  0  0  0  0  0  0
    6.4691    5.9630    2.3475 C   0  0  0  0  0  0  0  0  0  0  0  0
    7.0751    3.9376    3.7810 C   0  0  2  0  0  0  0  0  0  0  0  0
    7.7716    5.8583    1.5885 C   0  0  0  0  0  0  0  0  0  0  0  0
    8.1042    3.6212    2.6537 C   0  0  1  0  0  0  0  0  0  0  0  0
    6.4051    2.6410    4.3102 C   0  0  0  0  0  0  0  0  0  0  0  0
    8.7907    4.9203    2.2282 C   0  0  0  0  0  0  0  0  0  0  0  0
    9.0930    2.5772    3.1725 C   0  0  1  0  0  0  0  0  0  0  0  0
    7.4113    1.5355    4.6845 C   0  0  0  0  0  0  0  0  0  0  0  0
    8.3979    1.2525    3.5451 C   0  0  2  0  0  0  0  0  0  0  0  0
   10.2487    2.1333    2.2801 C   0  0  0  0  0  0  0  0  0  0  0  0
    9.6348    0.4269    3.9487 C   0  0  2  0  0  0  0  0  0  0  0  0
    7.6469    0.5617    2.3780 C   0  0  0  0  0  0  0  0  0  0  0  0
   10.6859    0.7842    2.8797 C   0  0  0  0  0  0  0  0  0  0  0  0
    9.3808   -0.9635    3.9913 O   0  0  0  0  0  0  0  0  0  0  0  0
  1  2  1  0
  2  3  4  0
  2  4  4  0
  3  5  1  0
  3  6  4  0
  4  7  4  0
  6  8  4  0
  7  9  1  0
  8 10  1  0
  9 11  1  0
  9 12  1  6
 10 13  1  0
 11 14  1  0
 12 15  1  0
 14 16  1  0
 14 17  1  6
 16 18  1  0
 16 19  1  6
 17 20  1  0
 18 21  1  6
  7  8  4  0
 11 13  1  1
 15 16  1  0
 18 20  1  0
M  END
