
     RDKit          3D

 31 35  0  0  0  0  0  0  0  0999 V2000
    4.6208    2.4162    5.3759 S   0  0  0  0  0  0  0  0  0  0  0  0
    5.1594    3.7685    4.3357 C   0  0  0  0  0  0  0  0  0  0  0  0
    5.4030    0.9269    4.6478 C   0  0  2  0  0  0  0  0  0  0  0  0
    6.4865    4.1634    4.1484 C   0  0  0  0  0  0  0  0  0  0  0  0
    4.1514    4.4925    3.6820 C   0  0  0  0  0  0  0  0  0  0  0  0
    5.3864   -0.4269    5.4360 C   0  0  1  0  0  0  0  0  0  0  0  0
    6.8211    1.3123    4.1999 C   0  0  0  0  0  0  0  0  0  0  0  0
    6.7994    5.2351    3.3019 C   0  0  0  0  0  0  0  0  0  0  0  0
    4.4641    5.5629    2.8375 C   0  0  0  0  0  0  0  0  0  0  0  0
    6.6427   -1.3265    5.0407 C   0  0  0  0  0  0  0  0  0  0  0  0
    5.3351   -0.4739    6.9885 C   0  0  0  0  0  0  0  0  0  0  0  0
    7.4285    0.2626    3.2859 C   0  0  0  0  0  0  0  0  0  0  0  0
    5.7935    5.9298    2.6275 C   0  0  0  0  0  0  0  0  0  0  0  0
    7.0533   -1.2021    3.5359 C   0  0  1  0  0  0  0  0  0  0  0  0
    6.4745   -2.7773    5.5492 C   0  0  0  0  0  0  0  0  0  0  0  0
    5.0718   -1.9356    7.4734 C   0  0  1  0  0  0  0  0  0  0  0  0
    4.3599    0.3300    7.8488 C   0  0  0  0  0  0  0  0  0  0  0  0
    8.3264    0.6373    2.3567 C   0  0  0  0  0  0  0  0  0  0  0  0
    6.1161    7.0099    1.7964 N   0  0  0  0  0  0  0  0  0  0  0  0
    8.3106   -2.0619    3.2233 C   0  0  0  0  0  0  0  0  0  0  0  0
    5.9084   -1.6538    2.5996 C   0  0  0  0  0  0  0  0  0  0  0  0
    6.2349   -2.8316    7.0639 C   0  0  0  0  0  0  0  0  0  0  0  0
    4.9594   -1.6864    8.9652 C   0  0  0  0  0  0  0  0  0  0  0  0
    3.7269   -2.5549    7.0396 C   0  0  0  0  0  0  0  0  0  0  0  0
    4.5175   -0.2717    9.2538 C   0  0  0  0  0  0  0  0  0  0  0  0
    9.0442   -0.3523    1.5204 C   0  0  0  0  0  0  0  0  0  0  0  0
    5.3034    7.1417    0.8601 N   0  0  0  0  0  0  0  0  0  0  0  0
    8.8745   -1.8202    1.8239 C   0  0  0  0  0  0  0  0  0  0  0  0
    5.1732   -2.5253    9.8302 O   0  0  0  0  0  0  0  0  0  0  0  0
    9.7436    0.0434    0.5906 O   0  0  0  0  0  0  0  0  0  0  0  0
    4.5637    7.2673    0.0009 N   0  0  0  0  0  0  0  0  0  0  0  0
  1  2  1  0
  3  1  1  1
  2  4  4  0
  2  5  4  0
  3  6  1  0
  3  7  1  0
  4  8  4  0
  5  9  4  0
  6 10  1  0
  6 11  1  1
  7 12  1  0
  8 13  4  0
 10 14  1  0
 10 15  1  0
 11 16  1  0
 11 17  1  0
 12 18  2  0
 13 19  1  0
 14 20  1  0
 14 21  1  6
 15 22  1  0
 16 23  1  0
 16 24  1  6
 17 25  1  0
 18 26  1  0
 19 27  2  0
 20 28  1  0
 23 29  2  0
 26 30  2  0
 27 31  2  0
  9 13  4  0
 12 14  1  0
 16 22  1  0
 23 25  1  0
 26 28  1  0
M  CHG  2  27   1  31  -1
M  END
