
     RDKit          3D

 25 29  0  0  0  0  0  0  0  0999 V2000
    2.9646    5.9635    2.8779 O   0  0  0  0  0  0  0  0  0  0  0  0
    3.4503    6.2874    1.8066 C   0  0  0  0  0  0  0  0  0  0  0  0
    2.7062    6.2743    0.6833 O   0  0  0  0  0  0  0  0  0  0  0  0
    4.8819    6.7070    1.5516 C   0  0  1  0  0  0  0  0  0  0  0  0
    4.8725    8.1577    1.0685 C   0  0  0  0  0  0  0  0  0  0  0  0
    5.7201    6.4772    2.8389 C   0  0  2  0  0  0  0  0  0  0  0  0
    4.2522    8.2558   -0.2153 O   0  0  0  0  0  0  0  0  0  0  0  0
    6.2901    8.7039    0.9444 C   0  0  0  0  0  0  0  0  0  0  0  0
    7.0778    7.2103    2.8520 C   0  0  2  0  0  0  0  0  0  0  0  0
    5.9106    4.9557    3.0522 C   0  0  0  0  0  0  0  0  0  0  0  0
    7.0151    8.6272    2.2736 C   0  0  0  0  0  0  0  0  0  0  0  0
    8.1543    6.3345    2.1945 C   0  0  0  0  0  0  0  0  0  0  0  0
    7.2461    4.5650    3.7167 C   0  0  2  0  0  0  0  0  0  0  0  0
    8.4060    5.1631    3.0231 N   0  0  0  0  0  0  0  0  0  0  0  0
    7.3400    3.0704    3.7661 C   0  0  0  0  0  0  0  0  0  0  0  0
    9.4808    4.2830    2.5335 C   0  0  0  0  0  0  0  0  0  0  0  0
    6.6418    2.2525    4.6110 N   0  0  0  0  0  0  0  0  0  0  0  0
    8.1311    2.2770    2.9653 C   0  0  0  0  0  0  0  0  0  0  0  0
    9.0396    2.9097    1.9798 C   0  0  0  0  0  0  0  0  0  0  0  0
    6.9516    0.9341    4.3466 C   0  0  0  0  0  0  0  0  0  0  0  0
    7.8919    0.9234    3.3116 C   0  0  0  0  0  0  0  0  0  0  0  0
    6.4766   -0.2395    4.9446 C   0  0  0  0  0  0  0  0  0  0  0  0
    8.3830   -0.3151    2.8560 C   0  0  0  0  0  0  0  0  0  0  0  0
    6.9774   -1.4565    4.4722 C   0  0  0  0  0  0  0  0  0  0  0  0
    7.9167   -1.4967    3.4440 C   0  0  0  0  0  0  0  0  0  0  0  0
  1  2  2  0
  2  3  1  0
  4  2  1  1
  4  5  1  0
  4  6  1  0
  5  7  1  0
  5  8  1  0
  6  9  1  0
  6 10  1  6
  8 11  1  0
  9 12  1  6
 13 10  1  6
 12 14  1  0
 13 15  1  0
 14 16  1  0
 15 17  4  0
 15 18  4  0
 16 19  1  0
 17 20  4  0
 18 21  4  0
 20 22  4  0
 21 23  4  0
 22 24  4  0
 23 25  4  0
  9 11  1  0
 13 14  1  0
 18 19  1  0
 20 21  4  0
 24 25  4  0
M  END
