
     RDKit          3D

 19 21  0  0  0  0  0  0  0  0999 V2000
    9.2910    1.0953    2.4926 O   0  0  0  0  0  0  0  0  0  0  0  0
    8.6110    2.0791    2.7546 C   0  0  0  0  0  0  0  0  0  0  0  0
    9.0627    3.4410    2.4064 C   0  0  0  0  0  0  0  0  0  0  0  0
    7.3016    1.9528    3.4200 C   0  0  0  0  0  0  0  0  0  0  0  0
    8.3361    4.5311    2.7116 C   0  0  0  0  0  0  0  0  0  0  0  0
    6.5770    3.0369    3.7276 C   0  0  0  0  0  0  0  0  0  0  0  0
    6.9934    4.4785    3.4527 C   0  0  2  0  0  0  0  0  0  0  0  0
    8.7988    5.8960    2.2700 C   0  0  0  0  0  0  0  0  0  0  0  0
    5.9144    5.1942    2.5562 C   0  0  2  0  0  0  0  0  0  0  0  0
    7.1541    5.1499    4.8351 C   0  0  0  0  0  0  0  0  0  0  0  0
    7.7398    6.5483    1.3892 C   0  0  0  0  0  0  0  0  0  0  0  0
    6.3706    6.6037    2.0848 C   0  0  1  0  0  0  0  0  0  0  0  0
    4.5190    5.3032    3.2092 C   0  0  0  0  0  0  0  0  0  0  0  0
    5.3357    7.2397    1.1392 C   0  0  0  0  0  0  0  0  0  0  0  0
    3.4940    5.9396    2.2686 C   0  0  0  0  0  0  0  0  0  0  0  0
    3.9199    7.3201    1.7403 C   0  0  2  0  0  0  0  0  0  0  0  0
    2.9736    7.7730    0.6299 C   0  0  0  0  0  0  0  0  0  0  0  0
    3.8397    8.3886    2.8412 C   0  0  0  0  0  0  0  0  0  0  0  0
    3.3112    8.4329   -0.3479 O   0  0  0  0  0  0  0  0  0  0  0  0
  1  2  2  0
  2  3  1  0
  2  4  1  0
  3  5  2  0
  4  6  2  0
  5  7  1  0
  5  8  1  0
  7  9  1  0
  7 10  1  1
  8 11  1  0
  9 12  1  0
  9 13  1  1
 12 14  1  6
 13 15  1  0
 14 16  1  0
 16 17  1  0
 16 18  1  1
 17 19  2  0
  6  7  1  0
 11 12  1  0
 15 16  1  0
M  END
