
     RDKit          3D

 40 43  0  0  0  0  0  0  0  0999 V2000
    6.7459    7.8706    2.0017 F   0  0  0  0  0  0  0  0  0  0  0  0
    5.5985    7.1727    1.7771 C   0  0  0  0  0  0  0  0  0  0  0  0
    4.5797    8.0639    1.9265 F   0  0  0  0  0  0  0  0  0  0  0  0
    5.6121    6.8453    0.4545 F   0  0  0  0  0  0  0  0  0  0  0  0
    5.4790    5.9604    2.6715 C   0  0  0  0  0  0  0  0  0  0  0  0
    6.5992    5.1455    2.9035 C   0  0  0  0  0  0  0  0  0  0  0  0
    4.2682    5.6431    3.3038 C   0  0  0  0  0  0  0  0  0  0  0  0
    6.5083    4.0291    3.7417 C   0  0  0  0  0  0  0  0  0  0  0  0
    4.1760    4.5259    4.1396 C   0  0  0  0  0  0  0  0  0  0  0  0
    5.2911    3.7070    4.3548 C   0  0  0  0  0  0  0  0  0  0  0  0
    5.1426    2.5259    5.2534 C   0  0  0  0  0  0  0  0  0  0  0  0
    4.1650    2.4229    5.9872 O   0  0  0  0  0  0  0  0  0  0  0  0
    6.1276    1.5732    5.1672 N   0  0  0  0  0  0  0  0  0  0  0  0
    6.0036    0.2790    5.8301 C   0  0  0  0  0  0  0  0  0  0  0  0
    4.8397   -0.5798    5.2357 C   0  0  0  0  0  0  0  0  0  0  0  0
    5.3522   -1.7209    4.4029 N   0  0  0  0  0  0  0  0  0  0  0  0
    3.9366   -1.0471    6.3851 C   0  0  0  0  0  0  0  0  0  0  0  0
    5.0092   -3.0375    5.0034 C   0  0  0  0  0  0  0  0  0  0  0  0
    6.8257   -1.7005    4.2649 C   0  0  0  0  0  0  0  0  0  0  0  0
    2.5975   -1.3856    6.1222 C   0  0  0  0  0  0  0  0  0  0  0  0
    4.4052   -1.1527    7.7041 C   0  0  0  0  0  0  0  0  0  0  0  0
    5.9306   -3.5622    6.1431 C   0  0  0  0  0  0  0  0  0  0  0  0
    7.6291   -1.9224    5.5738 C   0  0  0  0  0  0  0  0  0  0  0  0
    1.7528   -1.8106    7.1497 C   0  0  0  0  0  0  0  0  0  0  0  0
    3.5575   -1.5723    8.7311 C   0  0  0  0  0  0  0  0  0  0  0  0
    6.8736   -2.5668    6.6668 N   0  0  0  0  0  0  0  0  0  0  0  0
    2.2323   -1.9005    8.4538 C   0  0  0  0  0  0  0  0  0  0  0  0
    7.7925   -3.0857    7.6971 C   0  0  0  0  0  0  0  0  0  0  0  0
    9.0078   -3.9187    7.2124 C   0  0  2  0  0  0  0  0  0  0  0  0
    9.9684   -3.1032    6.5316 O   0  0  0  0  0  0  0  0  0  0  0  0
    8.6183   -5.1185    6.3400 C   0  0  0  0  0  0  0  0  0  0  0  0
    8.4278   -4.6703    4.9964 O   0  0  0  0  0  0  0  0  0  0  0  0
    9.3691   -5.0422    4.0779 C   0  0  0  0  0  0  0  0  0  0  0  0
   10.3697   -4.2263    3.5521 C   0  0  0  0  0  0  0  0  0  0  0  0
    9.2764   -6.3658    3.6485 C   0  0  0  0  0  0  0  0  0  0  0  0
   11.2820   -4.7362    2.6163 C   0  0  0  0  0  0  0  0  0  0  0  0
   10.1857   -6.8751    2.7180 C   0  0  0  0  0  0  0  0  0  0  0  0
   11.1969   -6.0648    2.1991 C   0  0  0  0  0  0  0  0  0  0  0  0
   12.0243   -6.6853    1.3040 O   0  0  0  0  0  0  0  0  0  0  0  0
   13.0007   -7.5707    1.8376 C   0  0  0  0  0  0  0  0  0  0  0  0
  1  2  1  0
  2  3  1  0
  2  4  1  0
  2  5  1  0
  5  6  4  0
  5  7  4  0
  6  8  4  0
  7  9  4  0
  8 10  4  0
 10 11  1  0
 11 12  2  0
 11 13  1  0
 13 14  1  0
 14 15  1  0
 15 16  1  0
 15 17  1  0
 16 18  1  0
 16 19  1  0
 17 20  4  0
 17 21  4  0
 18 22  1  0
 19 23  1  0
 20 24  4  0
 21 25  4  0
 22 26  1  0
 24 27  4  0
 26 28  1  0
 28 29  1  0
 29 30  1  6
 29 31  1  0
 31 32  1  0
 32 33  1  0
 33 34  4  0
 33 35  4  0
 34 36  4  0
 35 37  4  0
 36 38  4  0
 38 39  1  0
 39 40  1  0
  9 10  4  0
 23 26  1  0
 25 27  4  0
 37 38  4  0
M  END
