
     RDKit          3D

 19 21  0  0  0  0  0  0  0  0999 V2000
    5.4146    3.4968    3.4186 O   0  0  0  0  0  0  0  0  0  0  0  0
    6.5365    3.9556    3.2374 C   0  0  0  0  0  0  0  0  0  0  0  0
    6.7923    5.4075    3.0167 C   0  0  0  0  0  0  0  0  0  0  0  0
    7.7151    3.0698    3.2334 C   0  0  0  0  0  0  0  0  0  0  0  0
    5.7072    6.4054    2.9802 C   0  0  0  0  0  0  0  0  0  0  0  0
    8.0675    5.7777    2.8171 C   0  0  0  0  0  0  0  0  0  0  0  0
    8.9762    3.6215    3.0206 C   0  0  0  0  0  0  0  0  0  0  0  0
    7.5730    1.6923    3.4408 C   0  0  0  0  0  0  0  0  0  0  0  0
    4.4020    6.0502    3.3496 C   0  0  0  0  0  0  0  0  0  0  0  0
    5.9556    7.7284    2.5769 C   0  0  0  0  0  0  0  0  0  0  0  0
    9.1730    4.9618    2.8112 O   0  0  0  0  0  0  0  0  0  0  0  0
   10.1037    2.8017    3.0136 C   0  0  0  0  0  0  0  0  0  0  0  0
    8.7011    0.8693    3.4343 C   0  0  0  0  0  0  0  0  0  0  0  0
    3.3686    6.9894    3.3058 C   0  0  0  0  0  0  0  0  0  0  0  0
    4.9224    8.6699    2.5339 C   0  0  0  0  0  0  0  0  0  0  0  0
    9.9568    1.4333    3.2204 C   0  0  0  0  0  0  0  0  0  0  0  0
    3.6358    8.2895    2.8977 C   0  0  0  0  0  0  0  0  0  0  0  0
   11.0841    0.6668    3.2061 O   0  0  0  0  0  0  0  0  0  0  0  0
    2.5985    9.1734    2.8705 O   0  0  0  0  0  0  0  0  0  0  0  0
  1  2  2  0
  2  3  4  0
  2  4  4  0
  3  5  1  0
  3  6  4  0
  4  7  4  0
  4  8  4  0
  5  9  4  0
  5 10  4  0
  6 11  4  0
  7 12  4  0
  8 13  4  0
  9 14  4  0
 10 15  4  0
 12 16  4  0
 14 17  4  0
 16 18  1  0
 17 19  1  0
  7 11  4  0
 13 16  4  0
 15 17  4  0
M  END
