
     RDKit          3D

 22 24  0  0  0  0  0  0  0  0999 V2000
    3.6062    8.8479    2.7986 Br  0  0  0  0  0  0  0  0  0  0  0  0
    4.5372    7.2252    3.0680 C   0  0  0  0  0  0  0  0  0  0  0  0
    4.3989    6.5413    4.2748 C   0  0  0  0  0  0  0  0  0  0  0  0
    5.3558    6.7219    2.0590 C   0  0  0  0  0  0  0  0  0  0  0  0
    5.0884    5.3429    4.4759 C   0  0  0  0  0  0  0  0  0  0  0  0
    6.0434    5.5230    2.2597 C   0  0  0  0  0  0  0  0  0  0  0  0
    5.9171    4.8284    3.4706 C   0  0  0  0  0  0  0  0  0  0  0  0
    6.6552    3.5685    3.6806 C   0  0  0  0  0  0  0  0  0  0  0  0
    7.6683    3.2934    2.8352 C   0  0  0  0  0  0  0  0  0  0  0  0
    6.1575    2.6838    4.8026 C   0  0  0  0  0  0  0  0  0  0  0  0
    8.4978    2.0876    2.8835 C   0  0  0  0  0  0  0  0  0  0  0  0
    5.3654    1.5628    4.3195 N   0  0  0  0  0  0  0  0  0  0  0  0
    9.2499    1.7225    1.7613 C   0  0  0  0  0  0  0  0  0  0  0  0
    8.5626    1.3041    4.0418 C   0  0  0  0  0  0  0  0  0  0  0  0
    4.9572    1.5087    3.0375 N   0  0  0  0  0  0  0  0  0  0  0  0
    4.9100    0.4883    5.0271 C   0  0  0  0  0  0  0  0  0  0  0  0
   10.0487    0.5764    1.7917 C   0  0  0  0  0  0  0  0  0  0  0  0
    9.3589    0.1568    4.0728 C   0  0  0  0  0  0  0  0  0  0  0  0
    4.2518    0.3949    2.8904 N   0  0  0  0  0  0  0  0  0  0  0  0
    4.2122   -0.2430    4.0974 C   0  0  0  0  0  0  0  0  0  0  0  0
   10.0975   -0.2019    2.9472 C   0  0  0  0  0  0  0  0  0  0  0  0
   11.1760   -1.7537    2.9870 Br  0  0  0  0  0  0  0  0  0  0  0  0
  1  2  1  0
  2  3  4  0
  2  4  4  0
  3  5  4  0
  4  6  4  0
  5  7  4  0
  7  8  1  0
  8  9  2  0
  8 10  1  0
  9 11  1  0
 10 12  1  0
 11 13  4  0
 11 14  4  0
 12 15  4  0
 12 16  4  0
 13 17  4  0
 14 18  4  0
 15 19  4  0
 16 20  4  0
 17 21  4  0
 21 22  1  0
  6  7  4  0
 18 21  4  0
 19 20  4  0
M  END
