
     RDKit          3D

 25 28  0  0  0  0  0  0  0  0999 V2000
    3.3040    7.5685    3.0972 O   0  0  0  0  0  0  0  0  0  0  0  0
    3.8532    6.5028    3.3691 C   0  0  0  0  0  0  0  0  0  0  0  0
    5.3274    6.4027    3.2656 C   0  0  0  0  0  0  0  0  0  0  0  0
    3.0804    5.3140    3.8665 C   0  0  0  0  0  0  0  0  0  0  0  0
    6.0131    5.2874    3.5844 C   0  0  0  0  0  0  0  0  0  0  0  0
    3.8103    4.0206    3.5413 C   0  0  0  0  0  0  0  0  0  0  0  0
    7.4880    5.2381    3.5064 C   0  0  0  0  0  0  0  0  0  0  0  0
    5.2863    3.9964    4.0306 C   0  0  1  0  0  0  0  0  0  0  0  0
    8.1542    4.0690    3.5932 C   0  0  0  0  0  0  0  0  0  0  0  0
    8.2986    6.5187    3.3537 C   0  0  0  0  0  0  0  0  0  0  0  0
    6.0104    2.7685    3.3786 C   0  0  1  0  0  0  0  0  0  0  0  0
    5.3005    3.9253    5.5760 C   0  0  0  0  0  0  0  0  0  0  0  0
    7.5140    2.7234    3.7780 C   0  0  1  0  0  0  0  0  0  0  0  0
    7.7185    7.5281    2.3511 C   0  0  0  0  0  0  0  0  0  0  0  0
    5.3279    1.3915    3.5898 C   0  0  0  0  0  0  0  0  0  0  0  0
    8.1697    1.6046    2.9608 C   0  0  2  0  0  0  0  0  0  0  0  0
    8.3088    7.3906    0.9454 C   0  0  0  0  0  0  0  0  0  0  0  0
    6.0907    0.2343    2.9128 C   0  0  0  0  0  0  0  0  0  0  0  0
    7.5613    0.2289    3.3209 C   0  0  1  0  0  0  0  0  0  0  0  0
    9.6757    1.3689    3.0325 C   0  0  0  0  0  0  0  0  0  0  0  0
    9.7372    7.9103    0.8911 C   0  0  0  0  0  0  0  0  0  0  0  0
    8.4944   -0.6422    2.5004 C   0  0  0  0  0  0  0  0  0  0  0  0
    7.7232   -0.2213    4.7858 C   0  0  0  0  0  0  0  0  0  0  0  0
    9.8439    0.0273    2.3025 C   0  0  0  0  0  0  0  0  0  0  0  0
    8.2138   -1.7543    2.0743 O   0  0  0  0  0  0  0  0  0  0  0  0
  1  2  2  0
  2  3  1  0
  2  4  1  0
  3  5  2  0
  4  6  1  0
  5  7  1  0
  5  8  1  0
  7  9  2  0
  7 10  1  0
  8 11  1  0
  8 12  1  1
 13  9  1  6
 10 14  1  0
 11 15  1  1
 13 16  1  0
 14 17  1  0
 15 18  1  0
 16 19  1  0
 16 20  1  1
 17 21  1  0
 19 22  1  0
 19 23  1  1
 20 24  1  0
 22 25  2  0
  6  8  1  0
 11 13  1  0
 18 19  1  0
 22 24  1  0
M  END
