
     RDKit          3D

 27 31  0  0  0  0  0  0  0  0999 V2000
    4.7372    7.3875    2.8853 O   0  0  0  0  0  0  0  0  0  0  0  0
    5.5840    6.3211    2.9442 C   0  0  0  0  0  0  0  0  0  0  0  0
    5.0464    5.0783    3.2485 C   0  0  0  0  0  0  0  0  0  0  0  0
    6.9440    6.4638    2.7227 C   0  0  0  0  0  0  0  0  0  0  0  0
    5.8700    3.9399    3.3292 C   0  0  0  0  0  0  0  0  0  0  0  0
    7.7686    5.3390    2.7898 C   0  0  0  0  0  0  0  0  0  0  0  0
    7.2484    4.0576    3.0636 C   0  0  0  0  0  0  0  0  0  0  0  0
    5.2481    2.6181    3.7334 C   0  0  1  0  0  0  0  0  0  0  0  0
    8.1960    2.8611    3.1075 C   0  0  1  0  0  0  0  0  0  0  0  0
    6.0289    1.4715    3.0826 C   0  0  0  0  0  0  0  0  0  0  0  0
    5.1837    2.4511    5.2714 C   0  0  0  0  0  0  0  0  0  0  0  0
    7.5185    1.4931    3.4559 C   0  0  1  0  0  0  0  0  0  0  0  0
    9.0591    2.7391    1.8238 C   0  0  0  0  0  0  0  0  0  0  0  0
    4.3795    1.2542    5.7268 C   0  0  0  0  0  0  0  0  0  0  0  0
    8.2317    0.3210    2.7619 C   0  0  1  0  0  0  0  0  0  0  0  0
   10.1645    1.6650    1.9129 C   0  0  0  0  0  0  0  0  0  0  0  0
    4.4621    0.0381    5.0344 C   0  0  0  0  0  0  0  0  0  0  0  0
    3.5318    1.3466    6.8385 C   0  0  0  0  0  0  0  0  0  0  0  0
    9.7629    0.4474    2.7658 C   0  0  2  0  0  0  0  0  0  0  0  0
    7.9710   -1.0858    3.3023 C   0  0  0  0  0  0  0  0  0  0  0  0
    3.7117   -1.0637    5.4477 C   0  0  0  0  0  0  0  0  0  0  0  0
    2.7805    0.2445    7.2488 C   0  0  0  0  0  0  0  0  0  0  0  0
   10.1301   -0.9141    2.1381 C   0  0  2  0  0  0  0  0  0  0  0  0
   10.3863    0.5737    4.1781 C   0  0  0  0  0  0  0  0  0  0  0  0
    9.1709   -1.9118    2.8105 C   0  0  0  0  0  0  0  0  0  0  0  0
    2.8711   -0.9602    6.5543 C   0  0  0  0  0  0  0  0  0  0  0  0
   11.4842   -1.2677    2.3409 O   0  0  0  0  0  0  0  0  0  0  0  0
  1  2  1  0
  2  3  4  0
  2  4  4  0
  3  5  4  0
  4  6  4  0
  5  7  4  0
  5  8  1  0
  7  9  1  0
  8 10  1  0
  8 11  1  1
  9 12  1  0
  9 13  1  6
 11 14  1  0
 12 15  1  0
 13 16  1  0
 14 17  4  0
 14 18  4  0
 15 19  1  0
 15 20  1  1
 17 21  4  0
 18 22  4  0
 19 23  1  0
 19 24  1  1
 20 25  1  0
 21 26  4  0
 23 27  1  1
  6  7  4  0
 12 10  1  6
 16 19  1  0
 22 26  4  0
 23 25  1  0
M  END
