
     RDKit          3D

 23 26  0  0  0  0  0  0  0  0999 V2000
   10.3427    1.5761    0.2732 O   0  0  0  0  0  0  0  0  0  0  0  0
    9.6969    2.1185    1.1667 C   0  0  0  0  0  0  0  0  0  0  0  0
    9.1708    3.4850    0.9578 C   0  0  0  0  0  0  0  0  0  0  0  0
    9.4894    1.4751    2.5113 C   0  0  0  0  0  0  0  0  0  0  0  0
    8.4369    4.1129    1.8947 C   0  0  0  0  0  0  0  0  0  0  0  0
    8.1550    1.9027    3.1042 C   0  0  0  0  0  0  0  0  0  0  0  0
    8.0217    5.5066    1.6919 C   0  0  0  0  0  0  0  0  0  0  0  0
    7.9797    3.4473    3.2047 C   0  0  2  0  0  0  0  0  0  0  0  0
    8.9300    6.4564    1.3886 C   0  0  0  0  0  0  0  0  0  0  0  0
    6.5480    5.7472    1.9036 C   0  0  0  0  0  0  0  0  0  0  0  0
    6.4536    3.7515    3.4627 C   0  0  2  0  0  0  0  0  0  0  0  0
    8.8761    3.9787    4.3480 C   0  0  0  0  0  0  0  0  0  0  0  0
    8.7054    7.9162    1.1517 C   0  0  0  0  0  0  0  0  0  0  0  0
    6.1135    5.2671    3.2958 C   0  0  2  0  0  0  0  0  0  0  0  0
    5.9034    3.1702    4.7953 C   0  0  0  0  0  0  0  0  0  0  0  0
    4.6092    5.4481    3.5186 C   0  0  1  0  0  0  0  0  0  0  0  0
    4.4266    3.5168    5.0611 C   0  0  0  0  0  0  0  0  0  0  0  0
    4.1878    5.0182    4.9387 C   0  0  2  0  0  0  0  0  0  0  0  0
    3.9717    6.8220    3.3408 C   0  0  0  0  0  0  0  0  0  0  0  0
    2.7407    5.4736    4.8857 C   0  0  0  0  0  0  0  0  0  0  0  0
    4.8473    5.7868    6.0987 C   0  0  0  0  0  0  0  0  0  0  0  0
    2.5557    6.6140    3.8990 C   0  0  0  0  0  0  0  0  0  0  0  0
    1.8380    5.0056    5.5664 O   0  0  0  0  0  0  0  0  0  0  0  0
  1  2  2  0
  2  3  1  0
  2  4  1  0
  3  5  2  0
  4  6  1  0
  5  7  1  0
  5  8  1  0
  7  9  2  0
  7 10  1  0
  8 11  1  0
  8 12  1  1
  9 13  1  0
 14 10  1  6
 11 15  1  1
 14 16  1  0
 15 17  1  0
 16 18  1  0
 16 19  1  1
 18 20  1  0
 18 21  1  1
 19 22  1  0
 20 23  2  0
  6  8  1  0
 11 14  1  0
 17 18  1  0
 20 22  1  0
M  END
