
     RDKit          3D

 24 28  0  0  0  0  0  0  0  0999 V2000
    4.8268   -1.7317    0.1829 O   0  0  0  0  0  0  0  0  0  0  0  0
    4.2928   -1.5231    1.2677 C   0  0  0  0  0  0  0  0  0  0  0  0
    2.7821   -1.4205    1.4085 C   0  0  2  0  0  0  0  0  0  0  0  0
    5.1422   -1.3928    2.4605 C   0  0  0  0  0  0  0  0  0  0  0  0
    2.2735   -0.9046    2.7961 C   0  0  2  0  0  0  0  0  0  0  0  0
    2.0903   -2.7225    0.9938 C   0  0  1  0  0  0  0  0  0  0  0  0
    5.0065   -0.1411    3.1554 O   0  0  0  0  0  0  0  0  0  0  0  0
    4.5758   -1.3278    3.8526 C   0  0  1  0  0  0  0  0  0  0  0  0
    3.0754   -1.3800    4.0683 C   0  0  1  0  0  0  0  0  0  0  0  0
    0.7289   -1.0436    2.9726 C   0  0  0  0  0  0  0  0  0  0  0  0
    0.5549   -2.5711    0.9734 C   0  0  2  0  0  0  0  0  0  0  0  0
    2.4003   -3.3650   -0.3606 C   0  0  0  0  0  0  0  0  0  0  0  0
    5.4728   -1.7533    4.9754 C   0  0  0  0  0  0  0  0  0  0  0  0
    2.7593   -0.3385    5.1692 C   0  0  0  0  0  0  0  0  0  0  0  0
    2.6924   -2.7969    4.5692 C   0  0  0  0  0  0  0  0  0  0  0  0
    0.0838   -2.3136    2.3980 C   0  0  0  0  0  0  0  0  0  0  0  0
    0.2018   -3.9242    0.3834 C   0  0  0  0  0  0  0  0  0  0  0  0
   -0.0052   -1.5135    0.0021 C   0  0  0  0  0  0  0  0  0  0  0  0
    1.3261   -4.4566   -0.4847 C   0  0  0  0  0  0  0  0  0  0  0  0
    6.6356   -1.3760    5.0468 O   0  0  0  0  0  0  0  0  0  0  0  0
    4.8344   -2.6552    6.0004 C   0  0  0  0  0  0  0  0  0  0  0  0
    1.6554   -0.1836    5.6810 O   0  0  0  0  0  0  0  0  0  0  0  0
    3.7926   -3.5458    5.3416 C   0  0  0  0  0  0  0  0  0  0  0  0
   -0.8582   -4.5064    0.5666 O   0  0  0  0  0  0  0  0  0  0  0  0
  1  2  2  0
  3  2  1  1
  2  4  1  0
  3  5  1  0
  3  6  1  0
  4  7  1  0
  4  8  1  0
  5  9  1  0
  5 10  1  1
  6 11  1  0
  6 12  1  6
  8 13  1  0
  9 14  1  1
  9 15  1  0
 10 16  1  0
 11 17  1  0
 11 18  1  6
 12 19  1  0
 13 20  2  0
 13 21  1  0
 14 22  2  0
 15 23  1  0
 17 24  2  0
  8  7  1  1
  8  9  1  0
 11 16  1  0
 17 19  1  0
 21 23  1  0
M  END
