
     RDKit          3D

 14 16  0  0  0  0  0  0  0  0999 V2000
    8.0648    2.1988    3.6137 N   0  0  0  0  0  0  0  0  0  0  0  0
    8.4139    3.2425    2.8138 C   0  0  0  0  0  0  0  0  0  0  0  0
    6.8037    2.1090    4.0886 C   0  0  0  0  0  0  0  0  0  0  0  0
    7.4297    4.1919    2.5154 C   0  0  0  0  0  0  0  0  0  0  0  0
    9.8213    3.3004    2.3117 C   0  0  0  0  0  0  0  0  0  0  0  0
    5.7935    3.0186    3.8249 C   0  0  0  0  0  0  0  0  0  0  0  0
    7.4922    5.3318    1.7468 N   0  0  0  0  0  0  0  0  0  0  0  0
    6.1267    4.1040    3.0028 C   0  0  0  0  0  0  0  0  0  0  0  0
    6.2802    5.9801    1.7211 C   0  0  0  0  0  0  0  0  0  0  0  0
    5.4011    5.2318    2.5021 C   0  0  0  0  0  0  0  0  0  0  0  0
    5.9013    7.1608    1.0714 C   0  0  0  0  0  0  0  0  0  0  0  0
    4.0730    5.6851    2.6426 C   0  0  0  0  0  0  0  0  0  0  0  0
    4.5795    7.5887    1.2266 C   0  0  0  0  0  0  0  0  0  0  0  0
    3.6762    6.8636    2.0002 C   0  0  0  0  0  0  0  0  0  0  0  0
  1  2  4  0
  1  3  4  0
  2  4  4  0
  2  5  1  0
  3  6  4  0
  4  7  4  0
  4  8  4  0
  7  9  4  0
  8 10  4  0
  9 11  4  0
 10 12  4  0
 11 13  4  0
 12 14  4  0
  6  8  4  0
  9 10  4  0
 13 14  4  0
M  END
