
     RDKit          3D

 22 25  0  0  0  0  0  0  0  0999 V2000
    9.3837   -0.7418    0.3597 O   0  0  0  0  0  0  0  0  0  0  0  0
    8.8608   -0.0361    1.2125 C   0  0  0  0  0  0  0  0  0  0  0  0
    9.5415    1.1620    1.7427 C   0  0  0  0  0  0  0  0  0  0  0  0
    7.5192   -0.3390    1.7431 C   0  0  0  0  0  0  0  0  0  0  0  0
    8.9847    1.9336    2.6934 C   0  0  0  0  0  0  0  0  0  0  0  0
    6.9642    0.4261    2.6926 C   0  0  0  0  0  0  0  0  0  0  0  0
    7.6182    1.6494    3.3282 C   0  0  2  0  0  0  0  0  0  0  0  0
    9.6790    3.1900    3.1514 C   0  0  0  0  0  0  0  0  0  0  0  0
    6.7014    2.9201    3.1251 C   0  0  2  0  0  0  0  0  0  0  0  0
    7.8261    1.2976    4.8191 C   0  0  0  0  0  0  0  0  0  0  0  0
    8.7832    4.3928    2.8803 C   0  0  0  0  0  0  0  0  0  0  0  0
    7.4054    4.2448    3.5528 C   0  0  1  0  0  0  0  0  0  0  0  0
    5.3285    2.8068    3.8262 C   0  0  0  0  0  0  0  0  0  0  0  0
    6.5141    5.5051    3.3387 C   0  0  2  0  0  0  0  0  0  0  0  0
    4.4528    4.0399    3.6199 C   0  0  0  0  0  0  0  0  0  0  0  0
    5.1386    5.3556    4.0279 C   0  0  2  0  0  0  0  0  0  0  0  0
    6.3068    5.8702    1.8637 C   0  0  0  0  0  0  0  0  0  0  0  0
    4.2169    6.4301    3.7030 O   0  0  0  0  0  0  0  0  0  0  0  0
    5.2790    5.4341    5.5585 C   0  0  0  0  0  0  0  0  0  0  0  0
    5.4693    7.1257    1.7495 C   0  0  0  0  0  0  0  0  0  0  0  0
    4.1768    7.0489    2.5046 C   0  0  0  0  0  0  0  0  0  0  0  0
    3.1662    7.6270    2.1188 O   0  0  0  0  0  0  0  0  0  0  0  0
  1  2  2  0
  2  3  1  0
  2  4  1  0
  3  5  2  0
  4  6  2  0
  5  7  1  0
  5  8  1  0
  7  9  1  0
  7 10  1  1
  8 11  1  0
  9 12  1  0
  9 13  1  1
 12 14  1  0
 13 15  1  0
 14 16  1  0
 14 17  1  6
 16 18  1  0
 16 19  1  1
 17 20  1  0
 18 21  1  0
 21 22  2  0
  6  7  1  0
 12 11  1  6
 15 16  1  0
 20 21  1  0
M  END
