
     RDKit          3D

 20 23  0  0  0  0  0  0  0  0999 V2000
    8.5138   -0.6726    3.4113 O   0  0  0  0  0  0  0  0  0  0  0  0
    8.4618    0.5295    2.6676 C   0  0  1  0  0  0  0  0  0  0  0  0
    7.5963    1.6260    3.3191 C   0  0  1  0  0  0  0  0  0  0  0  0
    9.8592    1.1698    2.5600 C   0  0  0  0  0  0  0  0  0  0  0  0
    8.1256    2.8513    2.5532 C   0  0  2  0  0  0  0  0  0  0  0  0
    6.0935    1.5105    3.0342 C   0  0  0  0  0  0  0  0  0  0  0  0
    7.8389    1.6673    4.8487 C   0  0  0  0  0  0  0  0  0  0  0  0
    9.6419    2.6924    2.6249 C   0  0  0  0  0  0  0  0  0  0  0  0
    7.4971    4.1682    3.0188 C   0  0  2  0  0  0  0  0  0  0  0  0
    5.3453    2.7898    3.4472 C   0  0  0  0  0  0  0  0  0  0  0  0
    5.9505    4.0926    2.8540 C   0  0  1  0  0  0  0  0  0  0  0  0
    8.0593    5.3516    2.2168 C   0  0  0  0  0  0  0  0  0  0  0  0
    5.2482    5.4174    3.3577 C   0  0  1  0  0  0  0  0  0  0  0  0
    7.2442    6.5997    2.3403 C   0  0  0  0  0  0  0  0  0  0  0  0
    6.0025    6.6578    2.8548 C   0  0  0  0  0  0  0  0  0  0  0  0
    3.7945    5.4421    2.7985 C   0  0  0  0  0  0  0  0  0  0  0  0
    5.2045    5.4781    4.9036 C   0  0  0  0  0  0  0  0  0  0  0  0
    5.2843    7.9870    2.9529 C   0  0  0  0  0  0  0  0  0  0  0  0
    3.0751    6.7813    2.9660 C   0  0  0  0  0  0  0  0  0  0  0  0
    3.8838    7.9187    2.3555 C   0  0  0  0  0  0  0  0  0  0  0  0
  2  1  1  1
  2  3  1  0
  2  4  1  0
  3  5  1  0
  3  6  1  0
  3  7  1  1
  4  8  1  0
  5  9  1  0
  6 10  1  0
  9 11  1  0
  9 12  1  6
 11 13  1  0
 12 14  1  0
 13 15  1  0
 13 16  1  0
 13 17  1  1
 15 18  1  0
 16 19  1  0
 18 20  1  0
  5  8  1  1
 11 10  1  1
 14 15  2  0
 19 20  1  0
M  END
