
     RDKit          3D

 23 26  0  0  0  0  0  0  0  0999 V2000
    3.5949    8.2158    1.6810 O   0  0  0  0  0  0  0  0  0  0  0  0
    4.1128    7.2857    2.2950 C   0  0  0  0  0  0  0  0  0  0  0  0
    5.5885    7.1906    2.3558 C   0  0  0  0  0  0  0  0  0  0  0  0
    3.2989    6.2745    3.0563 C   0  0  0  0  0  0  0  0  0  0  0  0
    6.2173    6.1739    2.9718 C   0  0  0  0  0  0  0  0  0  0  0  0
    4.0057    4.9285    3.1111 C   0  0  0  0  0  0  0  0  0  0  0  0
    5.4916    4.9701    3.5952 C   0  0  1  0  0  0  0  0  0  0  0  0
    7.7225    6.1916    3.0931 C   0  0  0  0  0  0  0  0  0  0  0  0
    6.1961    3.6506    3.0600 C   0  0  1  0  0  0  0  0  0  0  0  0
    5.5481    5.0226    5.1585 C   0  0  0  0  0  0  0  0  0  0  0  0
    8.3437    4.9129    2.5461 C   0  0  0  0  0  0  0  0  0  0  0  0
    7.7525    3.6726    3.2265 C   0  0  2  0  0  0  0  0  0  0  0  0
    5.5707    2.3336    3.6037 C   0  0  0  0  0  0  0  0  0  0  0  0
    4.3869    4.4268    5.8458 C   0  0  0  0  0  0  0  0  0  0  0  0
    8.3176    2.3794    2.6315 C   0  0  2  0  0  0  0  0  0  0  0  0
    6.2766    1.0579    3.1074 C   0  0  0  0  0  0  0  0  0  0  0  0
    3.4436    3.9578    6.4227 C   0  0  0  0  0  0  0  0  0  0  0  0
    7.7788    1.1318    3.3602 C   0  0  1  0  0  0  0  0  0  0  0  0
    9.8257    2.1595    2.5806 C   0  0  0  0  0  0  0  0  0  0  0  0
    8.6361    0.0867    2.6694 C   0  0  0  0  0  0  0  0  0  0  0  0
    8.0998    1.0390    4.8634 C   0  0  0  0  0  0  0  0  0  0  0  0
    9.9394    0.6844    2.1668 C   0  0  0  0  0  0  0  0  0  0  0  0
    8.3352   -1.0936    2.5526 O   0  0  0  0  0  0  0  0  0  0  0  0
  1  2  2  0
  2  3  1  0
  2  4  1  0
  3  5  2  0
  4  6  1  0
  5  7  1  0
  5  8  1  0
  7  9  1  0
  7 10  1  1
  8 11  1  0
  9 12  1  0
  9 13  1  1
 10 14  1  0
 12 15  1  0
 13 16  1  0
 14 17  3  0
 15 18  1  0
 15 19  1  1
 18 20  1  0
 18 21  1  1
 19 22  1  0
 20 23  2  0
  6  7  1  0
 12 11  1  6
 16 18  1  0
 20 22  1  0
M  END
