
     RDKit          3D

 19 21  0  0  0  0  0  0  0  0999 V2000
    8.4515    5.4177    0.8917 O   0  0  0  0  0  0  0  0  0  0  0  0
    7.6306    5.1846    1.7721 C   0  0  0  0  0  0  0  0  0  0  0  0
    7.6859    3.9460    2.5570 C   0  0  0  0  0  0  0  0  0  0  0  0
    6.5493    6.1288    2.0866 C   0  0  0  0  0  0  0  0  0  0  0  0
    6.7219    3.7464    3.5440 C   0  0  0  0  0  0  0  0  0  0  0  0
    8.6715    2.9792    2.3363 C   0  0  0  0  0  0  0  0  0  0  0  0
    5.6768    5.8186    3.0565 C   0  0  0  0  0  0  0  0  0  0  0  0
    5.7296    4.6570    3.8118 O   0  0  0  0  0  0  0  0  0  0  0  0
    6.7352    2.5819    4.3143 C   0  0  0  0  0  0  0  0  0  0  0  0
    9.6465    3.1130    1.3851 O   0  0  0  0  0  0  0  0  0  0  0  0
    8.6900    1.8164    3.1015 C   0  0  0  0  0  0  0  0  0  0  0  0
    4.5759    6.7289    3.4253 C   0  0  0  0  0  0  0  0  0  0  0  0
    7.7219    1.6262    4.0840 C   0  0  0  0  0  0  0  0  0  0  0  0
    4.3220    7.9041    2.7014 C   0  0  0  0  0  0  0  0  0  0  0  0
    3.7394    6.4146    4.5070 C   0  0  0  0  0  0  0  0  0  0  0  0
    7.7744    0.4736    4.8107 O   0  0  0  0  0  0  0  0  0  0  0  0
    3.2685    8.7493    3.0603 C   0  0  0  0  0  0  0  0  0  0  0  0
    2.6868    7.2605    4.8657 C   0  0  0  0  0  0  0  0  0  0  0  0
    2.4531    8.4281    4.1431 C   0  0  0  0  0  0  0  0  0  0  0  0
  1  2  2  0
  2  3  4  0
  2  4  4  0
  3  5  4  0
  3  6  4  0
  4  7  4  0
  5  8  4  0
  5  9  4  0
  6 10  1  0
  6 11  4  0
  7 12  1  0
  9 13  4  0
 12 14  4  0
 12 15  4  0
 13 16  1  0
 14 17  4  0
 15 18  4  0
 17 19  4  0
  7  8  4  0
 11 13  4  0
 18 19  4  0
M  END
