
     RDKit          3D

 35 38  0  0  0  0  0  0  0  0999 V2000
    5.6316    6.0905    1.8934 F   0  0  0  0  0  0  0  0  0  0  0  0
    5.5245    5.1547    2.8447 C   0  0  0  0  0  0  0  0  0  0  0  0
    4.3048    4.5213    3.0491 C   0  0  0  0  0  0  0  0  0  0  0  0
    6.6355    4.8328    3.6138 C   0  0  0  0  0  0  0  0  0  0  0  0
    4.1922    3.5480    4.0435 C   0  0  0  0  0  0  0  0  0  0  0  0
    6.5255    3.8587    4.6073 C   0  0  0  0  0  0  0  0  0  0  0  0
    5.3055    3.2077    4.8269 C   0  0  0  0  0  0  0  0  0  0  0  0
    5.1971    2.2348    5.8752 N   0  0  0  0  0  0  0  0  0  0  0  0
    3.9068    2.0399    6.4240 C   0  0  0  0  0  0  0  0  0  0  0  0
    6.0375    1.0028    5.7397 C   0  0  0  0  0  0  0  0  0  0  0  0
    3.0347    2.9067    6.4654 O   0  0  0  0  0  0  0  0  0  0  0  0
    3.5625    0.6779    6.9309 C   0  0  0  0  0  0  0  0  0  0  0  0
    5.3076   -0.3287    5.4396 C   0  0  0  0  0  0  0  0  0  0  0  0
    7.0972    1.1490    4.6290 C   0  0  0  0  0  0  0  0  0  0  0  0
    2.7226   -0.1807    6.2103 C   0  0  0  0  0  0  0  0  0  0  0  0
    4.0487    0.2841    8.1827 C   0  0  0  0  0  0  0  0  0  0  0  0
    5.1150   -0.6047    3.9369 C   0  0  0  0  0  0  0  0  0  0  0  0
    6.4411    1.3050    3.2537 C   0  0  0  0  0  0  0  0  0  0  0  0
    2.4043   -1.4394    6.7229 C   0  0  0  0  0  0  0  0  0  0  0  0
    3.7283   -0.9754    8.6919 C   0  0  0  0  0  0  0  0  0  0  0  0
    5.1386    0.6261    3.1383 N   0  0  0  0  0  0  0  0  0  0  0  0
    2.9113   -1.8373    7.9597 C   0  0  0  0  0  0  0  0  0  0  0  0
    4.7360    0.3680    1.7358 C   0  0  0  0  0  0  0  0  0  0  0  0
    5.4857   -0.8183    1.0786 C   0  0  0  0  0  0  0  0  0  0  0  0
    5.8195   -0.4464   -0.2722 O   0  0  0  0  0  0  0  0  0  0  0  0
    6.7441   -1.2510    1.8414 C   0  0  0  0  0  0  0  0  0  0  0  0
    7.8910   -0.5700    1.2981 O   0  0  0  0  0  0  0  0  0  0  0  0
    9.0609   -1.2158    1.5838 C   0  0  0  0  0  0  0  0  0  0  0  0
    9.9473   -0.6034    2.4622 C   0  0  0  0  0  0  0  0  0  0  0  0
    9.3391   -2.4830    1.0734 C   0  0  0  0  0  0  0  0  0  0  0  0
   11.1421   -1.2454    2.7930 C   0  0  0  0  0  0  0  0  0  0  0  0
   10.5375   -3.1234    1.4044 C   0  0  0  0  0  0  0  0  0  0  0  0
   11.4474   -2.5033    2.2628 C   0  0  0  0  0  0  0  0  0  0  0  0
   12.6493   -3.0162    2.6679 O   0  0  0  0  0  0  0  0  0  0  0  0
   12.6956   -4.4139    2.9260 C   0  0  0  0  0  0  0  0  0  0  0  0
  1  2  1  0
  2  3  4  0
  2  4  4  0
  3  5  4  0
  4  6  4  0
  5  7  4  0
  7  8  1  0
  8  9  1  0
  8 10  1  0
  9 11  2  0
  9 12  1  0
 10 13  1  0
 10 14  1  0
 12 15  4  0
 12 16  4  0
 13 17  1  0
 14 18  1  0
 15 19  4  0
 16 20  4  0
 17 21  1  0
 19 22  4  0
 21 23  1  0
 23 24  1  0
 24 25  1  0
 24 26  1  0
 26 27  1  0
 27 28  1  0
 28 29  4  0
 28 30  4  0
 29 31  4  0
 30 32  4  0
 31 33  4  0
 33 34  1  0
 34 35  1  0
  6  7  4  0
 18 21  1  0
 20 22  4  0
 32 33  4  0
M  END
