
     RDKit          3D

 24 28  0  0  0  0  0  0  0  0999 V2000
    4.3282    3.1351    5.1828 O   0  0  0  0  0  0  0  0  0  0  0  0
    5.1051    3.3414    4.2608 C   0  0  0  0  0  0  0  0  0  0  0  0
    5.5844    4.7012    3.9066 C   0  0  1  0  0  0  0  0  0  0  0  0
    5.6025    2.2719    3.3401 C   0  0  0  0  0  0  0  0  0  0  0  0
    5.2573    5.7639    4.8205 O   0  0  0  0  0  0  0  0  0  0  0  0
    6.9055    4.8986    3.1555 C   0  0  1  0  0  0  0  0  0  0  0  0
    4.4468    5.6877    3.6428 C   0  0  1  0  0  0  0  0  0  0  0  0
    7.1140    2.2262    3.4840 C   0  0  2  0  0  0  0  0  0  0  0  0
    7.7752    5.9646    3.8455 C   0  0  0  0  0  0  0  0  0  0  0  0
    7.8198    3.5945    3.1720 C   0  0  1  0  0  0  0  0  0  0  0  0
    6.5304    5.3843    1.7273 C   0  0  0  0  0  0  0  0  0  0  0  0
    4.6044    6.7863    2.6741 C   0  0  0  0  0  0  0  0  0  0  0  0
    7.7247    1.0951    2.6503 C   0  0  0  0  0  0  0  0  0  0  0  0
    8.5930    6.6630    3.2538 O   0  0  0  0  0  0  0  0  0  0  0  0
    8.7635    3.4943    1.9371 C   0  0  0  0  0  0  0  0  0  0  0  0
    5.7567    6.7086    1.7059 C   0  0  0  0  0  0  0  0  0  0  0  0
    3.8004    7.7110    2.6636 O   0  0  0  0  0  0  0  0  0  0  0  0
    9.2645    1.1065    2.7213 C   0  0  2  0  0  0  0  0  0  0  0  0
    7.3389   -0.3455    2.9771 C   0  0  0  0  0  0  0  0  0  0  0  0
    9.7897    2.3444    1.9915 C   0  0  0  0  0  0  0  0  0  0  0  0
    9.5352   -0.2298    2.0473 C   0  0  0  0  0  0  0  0  0  0  0  0
    9.8655    1.0124    4.1357 C   0  0  0  0  0  0  0  0  0  0  0  0
    8.3477   -1.1668    2.1652 C   0  0  0  0  0  0  0  0  0  0  0  0
   10.5852   -0.5294    1.4950 O   0  0  0  0  0  0  0  0  0  0  0  0
  1  2  2  0
  2  3  1  0
  2  4  1  0
  3  5  1  1
  3  6  1  0
  3  7  1  0
  8  4  1  6
  6  9  1  1
  6 10  1  0
  6 11  1  0
  7 12  1  0
  8 13  1  0
  9 14  2  0
 10 15  1  6
 11 16  1  0
 12 17  2  0
 13 18  1  0
 13 19  1  0
 15 20  1  0
 18 21  1  0
 18 22  1  1
 19 23  1  0
 21 24  2  0
  7  5  1  1
  8 10  1  0
 12 16  1  0
 18 20  1  0
 21 23  1  0
M  END
