
     RDKit          3D

 26 30  0  0  0  0  0  0  0  0999 V2000
    5.4826    0.2310    5.7273 O   0  0  0  0  0  0  0  0  0  0  0  0
    6.0631   -0.0361    4.6860 C   0  0  0  0  0  0  0  0  0  0  0  0
    5.5818   -0.8498    3.7115 O   0  0  0  0  0  0  0  0  0  0  0  0
    7.4156    0.4818    4.3452 C   0  0  0  0  0  0  0  0  0  0  0  0
    5.9590   -2.2195    3.8574 C   0  0  0  0  0  0  0  0  0  0  0  0
    8.5150   -0.2035    4.7014 C   0  0  0  0  0  0  0  0  0  0  0  0
    7.5297    1.7639    3.5535 C   0  0  2  0  0  0  0  0  0  0  0  0
    9.8078    0.1190    4.3778 O   0  0  0  0  0  0  0  0  0  0  0  0
    8.9811    2.2851    3.5885 C   0  0  1  0  0  0  0  0  0  0  0  0
    6.5874    2.9045    4.0071 C   0  0  0  0  0  0  0  0  0  0  0  0
    9.9561    1.1228    3.3553 C   0  0  1  0  0  0  0  0  0  0  0  0
    9.1477    3.4442    2.5900 C   0  0  0  0  0  0  0  0  0  0  0  0
    7.1573    4.3092    3.7172 C   0  0  1  0  0  0  0  0  0  0  0  0
   11.4179    1.5591    3.3861 C   0  0  0  0  0  0  0  0  0  0  0  0
    7.9354    4.2638    2.4589 N   0  0  0  0  0  0  0  0  0  0  0  0
    6.0737    5.3397    3.6164 C   0  0  0  0  0  0  0  0  0  0  0  0
    8.2423    5.6054    1.9134 C   0  0  0  0  0  0  0  0  0  0  0  0
    5.0293    5.4977    4.4862 N   0  0  0  0  0  0  0  0  0  0  0  0
    5.9764    6.3246    2.6550 C   0  0  0  0  0  0  0  0  0  0  0  0
    6.9710    6.4133    1.5522 C   0  0  0  0  0  0  0  0  0  0  0  0
    4.2535    6.5706    4.0993 C   0  0  0  0  0  0  0  0  0  0  0  0
    4.8289    7.1083    2.9447 C   0  0  0  0  0  0  0  0  0  0  0  0
    3.0930    7.0979    4.6786 C   0  0  0  0  0  0  0  0  0  0  0  0
    4.2171    8.2232    2.3398 C   0  0  0  0  0  0  0  0  0  0  0  0
    2.5053    8.2058    4.0602 C   0  0  0  0  0  0  0  0  0  0  0  0
    3.0569    8.7620    2.9080 C   0  0  0  0  0  0  0  0  0  0  0  0
  1  2  2  0
  2  3  1  0
  2  4  1  0
  3  5  1  0
  4  6  2  0
  4  7  1  0
  6  8  1  0
  7  9  1  0
  7 10  1  1
  8 11  1  0
  9 12  1  6
 13 10  1  6
 11 14  1  1
 12 15  1  0
 13 16  1  0
 15 17  1  0
 16 18  4  0
 16 19  4  0
 17 20  1  0
 18 21  4  0
 19 22  4  0
 21 23  4  0
 22 24  4  0
 23 25  4  0
 24 26  4  0
  9 11  1  0
 13 15  1  0
 19 20  1  0
 21 22  4  0
 25 26  4  0
M  END
