
     RDKit          3D

 28 32  0  0  0  0  0  0  0  0999 V2000
   10.4421    1.5124   -0.1802 O   0  0  0  0  0  0  0  0  0  0  0  0
    9.9290    1.1213    0.8651 C   0  0  0  0  0  0  0  0  0  0  0  0
    9.1400    2.0651    1.6908 C   0  0  0  0  0  0  0  0  0  0  0  0
   10.1395   -0.2702    1.3898 C   0  0  0  0  0  0  0  0  0  0  0  0
    8.5041    1.6947    2.8217 C   0  0  0  0  0  0  0  0  0  0  0  0
    8.9088   -0.7307    2.1525 C   0  0  0  0  0  0  0  0  0  0  0  0
    8.4874    0.2271    3.3082 C   0  0  2  0  0  0  0  0  0  0  0  0
    7.8059    2.7047    3.7421 C   0  0  1  0  0  0  0  0  0  0  0  0
    7.0325   -0.1784    3.7656 C   0  0  2  0  0  0  0  0  0  0  0  0
    9.5115    0.0905    4.4596 C   0  0  0  0  0  0  0  0  0  0  0  0
    7.7947    4.1546    3.2602 C   0  0  0  0  0  0  0  0  0  0  0  0
    6.3849    2.2434    4.1110 C   0  0  0  0  0  0  0  0  0  0  0  0
    6.3990    0.8512    4.7518 C   0  0  1  0  0  0  0  0  0  0  0  0
    6.9196   -1.6381    4.2950 C   0  0  0  0  0  0  0  0  0  0  0  0
    8.9408    4.9680    3.3124 C   0  0  0  0  0  0  0  0  0  0  0  0
    6.6016    4.7111    2.7677 C   0  0  0  0  0  0  0  0  0  0  0  0
    4.9845    0.3798    5.1035 C   0  0  1  0  0  0  0  0  0  0  0  0
    5.5137   -2.0179    4.7950 C   0  0  0  0  0  0  0  0  0  0  0  0
    8.8985    6.2947    2.8746 C   0  0  0  0  0  0  0  0  0  0  0  0
    6.5605    6.0355    2.3284 C   0  0  0  0  0  0  0  0  0  0  0  0
    4.9977   -0.9951    5.8005 C   0  0  2  0  0  0  0  0  0  0  0  0
    4.0940    1.2402    5.9940 C   0  0  0  0  0  0  0  0  0  0  0  0
    7.7072    6.8160    2.3842 C   0  0  0  0  0  0  0  0  0  0  0  0
    3.5241   -1.0763    6.1558 C   0  0  0  0  0  0  0  0  0  0  0  0
    5.7749   -1.0705    7.1275 C   0  0  0  0  0  0  0  0  0  0  0  0
    2.9120    0.3069    6.2960 C   0  0  0  0  0  0  0  0  0  0  0  0
    7.6207    8.1045    1.9477 O   0  0  0  0  0  0  0  0  0  0  0  0
    2.9075   -2.1181    6.3341 O   0  0  0  0  0  0  0  0  0  0  0  0
  1  2  2  0
  2  3  1  0
  2  4  1  0
  3  5  2  0
  4  6  1  0
  5  7  1  0
  5  8  1  0
  7  9  1  0
  7 10  1  1
  8 11  1  6
  8 12  1  0
  9 13  1  0
  9 14  1  1
 11 15  4  0
 11 16  4  0
 13 17  1  0
 14 18  1  0
 15 19  4  0
 16 20  4  0
 17 21  1  0
 17 22  1  1
 19 23  4  0
 21 24  1  0
 21 25  1  1
 22 26  1  0
 23 27  1  0
 24 28  2  0
  6  7  1  0
 13 12  1  6
 18 21  1  0
 20 23  4  0
 24 26  1  0
M  END
