
     RDKit          3D

 22 25  0  0  0  0  0  0  0  0999 V2000
    3.4478    8.1722    1.8536 O   0  0  0  0  0  0  0  0  0  0  0  0
    4.0098    7.2386    2.4206 C   0  0  0  0  0  0  0  0  0  0  0  0
    5.4877    7.1394    2.3726 C   0  0  0  0  0  0  0  0  0  0  0  0
    3.2622    6.2311    3.2468 C   0  0  0  0  0  0  0  0  0  0  0  0
    6.1674    6.1191    2.9326 C   0  0  0  0  0  0  0  0  0  0  0  0
    3.9500    4.8793    3.1607 C   0  0  0  0  0  0  0  0  0  0  0  0
    5.4531    4.9087    3.5747 C   0  0  1  0  0  0  0  0  0  0  0  0
    7.6967    6.1052    3.0079 C   0  0  1  0  0  0  0  0  0  0  0  0
    6.1177    3.5704    3.0699 C   0  0  1  0  0  0  0  0  0  0  0  0
    5.5385    5.0543    5.1115 C   0  0  0  0  0  0  0  0  0  0  0  0
    8.2577    4.7849    2.4628 C   0  0  0  0  0  0  0  0  0  0  0  0
    8.4196    7.2729    2.3200 C   0  0  0  0  0  0  0  0  0  0  0  0
    7.6716    3.5782    3.2037 C   0  0  2  0  0  0  0  0  0  0  0  0
    5.4875    2.2826    3.6752 C   0  0  0  0  0  0  0  0  0  0  0  0
    8.2108    2.2568    2.6476 C   0  0  2  0  0  0  0  0  0  0  0  0
    6.1683    0.9789    3.2186 C   0  0  0  0  0  0  0  0  0  0  0  0
    7.6756    1.0452    3.4370 C   0  0  1  0  0  0  0  0  0  0  0  0
    9.7152    2.0175    2.5731 C   0  0  0  0  0  0  0  0  0  0  0  0
    8.5066   -0.0364    2.7708 C   0  0  0  0  0  0  0  0  0  0  0  0
    8.0273    1.0086    4.9357 C   0  0  0  0  0  0  0  0  0  0  0  0
    9.8046    0.5260    2.2166 C   0  0  0  0  0  0  0  0  0  0  0  0
    8.1916   -1.2172    2.7081 O   0  0  0  0  0  0  0  0  0  0  0  0
  1  2  2  0
  2  3  1  0
  2  4  1  0
  3  5  2  0
  4  6  1  0
  5  7  1  0
  5  8  1  0
  7  9  1  0
  7 10  1  1
  8 11  1  0
  8 12  1  6
  9 13  1  0
  9 14  1  1
 13 15  1  0
 14 16  1  0
 15 17  1  0
 15 18  1  1
 17 19  1  0
 17 20  1  1
 18 21  1  0
 19 22  2  0
  6  7  1  0
 13 11  1  6
 16 17  1  0
 19 21  1  0
M  END
