
     RDKit          3D

 34 37  0  0  0  0  0  0  0  0999 V2000
    2.5112   -1.0483    5.3687 O   0  0  0  0  0  0  0  0  0  0  0  0
    3.0906   -0.4245    6.2584 C   0  0  0  0  0  0  0  0  0  0  0  0
    4.2731    0.3371    6.0940 N   0  0  0  0  0  0  0  0  0  0  0  0
    2.5250   -0.5419    7.6217 C   0  0  0  0  0  0  0  0  0  0  0  0
    5.4999   -0.2801    6.4985 C   0  0  0  0  0  0  0  0  0  0  0  0
    4.3604    1.3641    5.0071 C   0  0  0  0  0  0  0  0  0  0  0  0
    1.7659   -1.6665    7.9709 C   0  0  0  0  0  0  0  0  0  0  0  0
    2.7161    0.5001    8.5347 C   0  0  0  0  0  0  0  0  0  0  0  0
    6.6114   -0.3349    5.6470 C   0  0  0  0  0  0  0  0  0  0  0  0
    5.5730   -0.8930    7.7525 C   0  0  0  0  0  0  0  0  0  0  0  0
    5.1082    0.8128    3.7739 C   0  0  0  0  0  0  0  0  0  0  0  0
    4.8991    2.7481    5.4162 C   0  0  0  0  0  0  0  0  0  0  0  0
    1.2335   -1.7670    9.2541 C   0  0  0  0  0  0  0  0  0  0  0  0
    2.1804    0.3920    9.8183 C   0  0  0  0  0  0  0  0  0  0  0  0
    7.7938   -0.9469    6.0664 C   0  0  0  0  0  0  0  0  0  0  0  0
    6.7552   -1.5087    8.1703 C   0  0  0  0  0  0  0  0  0  0  0  0
    5.5521    1.9429    2.8484 C   0  0  0  0  0  0  0  0  0  0  0  0
    6.3414    2.9420    4.9514 C   0  0  0  0  0  0  0  0  0  0  0  0
    1.4465   -0.7423   10.1786 C   0  0  0  0  0  0  0  0  0  0  0  0
    7.8673   -1.5279    7.3303 C   0  0  0  0  0  0  0  0  0  0  0  0
    6.4517    2.9218    3.4787 N   0  0  0  0  0  0  0  0  0  0  0  0
    7.8710    2.7660    3.0771 C   0  0  0  0  0  0  0  0  0  0  0  0
    8.3379    1.2899    3.0410 C   0  0  0  0  0  0  0  0  0  0  0  0
    9.3552    1.1167    4.0448 O   0  0  0  0  0  0  0  0  0  0  0  0
    8.8731    0.8404    1.6752 C   0  0  0  0  0  0  0  0  0  0  0  0
    8.5664   -0.5348    1.4162 O   0  0  0  0  0  0  0  0  0  0  0  0
    9.5734   -1.4558    1.4777 C   0  0  0  0  0  0  0  0  0  0  0  0
   10.0516   -2.2398    0.4283 C   0  0  0  0  0  0  0  0  0  0  0  0
   10.1375   -1.6057    2.7449 C   0  0  0  0  0  0  0  0  0  0  0  0
   11.0857   -3.1632    0.6462 C   0  0  0  0  0  0  0  0  0  0  0  0
   11.1692   -2.5215    2.9616 C   0  0  0  0  0  0  0  0  0  0  0  0
   11.6472   -3.3092    1.9148 C   0  0  0  0  0  0  0  0  0  0  0  0
   12.6498   -4.1725    2.2602 O   0  0  0  0  0  0  0  0  0  0  0  0
   12.5126   -5.5218    1.8299 C   0  0  0  0  0  0  0  0  0  0  0  0
  1  2  2  0
  2  3  1  0
  2  4  1  0
  3  5  1  0
  3  6  1  0
  4  7  4  0
  4  8  4  0
  5  9  4  0
  5 10  4  0
  6 11  1  0
  6 12  1  0
  7 13  4  0
  8 14  4  0
  9 15  4  0
 10 16  4  0
 11 17  1  0
 12 18  1  0
 13 19  4  0
 15 20  4  0
 17 21  1  0
 21 22  1  0
 22 23  1  0
 23 24  1  0
 23 25  1  0
 25 26  1  0
 26 27  1  0
 27 28  4  0
 27 29  4  0
 28 30  4  0
 29 31  4  0
 30 32  4  0
 32 33  1  0
 33 34  1  0
 14 19  4  0
 16 20  4  0
 18 21  1  0
 31 32  4  0
M  END
