
     RDKit          3D

 24 27  0  0  0  0  0  0  0  0999 V2000
    3.6272    7.8411    2.1812 O   0  0  0  0  0  0  0  0  0  0  0  0
    4.4158    7.0457    2.6875 C   0  0  0  0  0  0  0  0  0  0  0  0
    5.7944    6.9758    2.1426 C   0  0  0  0  0  0  0  0  0  0  0  0
    4.1006    6.1714    3.9041 C   0  0  1  0  0  0  0  0  0  0  0  0
    6.6752    6.0446    2.5496 C   0  0  0  0  0  0  0  0  0  0  0  0
    2.7069    5.9086    4.0561 O   0  0  0  0  0  0  0  0  0  0  0  0
    4.7904    4.8200    3.7184 C   0  0  0  0  0  0  0  0  0  0  0  0
    6.3321    4.9186    3.5336 C   0  0  1  0  0  0  0  0  0  0  0  0
    8.0932    6.0827    2.0289 C   0  0  0  0  0  0  0  0  0  0  0  0
    2.2869    5.6732    5.3976 C   0  0  0  0  0  0  0  0  0  0  0  0
    6.8537    3.5472    2.9550 C   0  0  1  0  0  0  0  0  0  0  0  0
    6.9790    5.2524    4.8972 C   0  0  0  0  0  0  0  0  0  0  0  0
    8.5265    4.7374    1.4594 C   0  0  0  0  0  0  0  0  0  0  0  0
    2.8404    4.3823    5.9719 C   0  0  0  0  0  0  0  0  0  0  0  0
    8.3445    3.6143    2.4875 C   0  0  2  0  0  0  0  0  0  0  0  0
    6.5870    2.3278    3.8829 C   0  0  0  0  0  0  0  0  0  0  0  0
    8.7290    2.2496    1.9097 C   0  0  2  0  0  0  0  0  0  0  0  0
    7.1401    0.9973    3.3392 C   0  0  0  0  0  0  0  0  0  0  0  0
    8.6121    1.1303    2.9639 C   0  0  1  0  0  0  0  0  0  0  0  0
   10.1104    2.0431    1.2979 C   0  0  0  0  0  0  0  0  0  0  0  0
    9.2110   -0.0025    2.1498 C   0  0  0  0  0  0  0  0  0  0  0  0
    9.4972    1.2874    4.2142 C   0  0  0  0  0  0  0  0  0  0  0  0
   10.1652    0.5221    1.0902 C   0  0  0  0  0  0  0  0  0  0  0  0
    8.9822   -1.1902    2.3353 O   0  0  0  0  0  0  0  0  0  0  0  0
  1  2  2  0
  2  3  1  0
  2  4  1  0
  3  5  2  0
  4  6  1  6
  4  7  1  0
  5  8  1  0
  5  9  1  0
  6 10  1  0
  8 11  1  0
  8 12  1  1
  9 13  1  0
 10 14  1  0
 11 15  1  0
 11 16  1  1
 15 17  1  0
 16 18  1  0
 17 19  1  0
 17 20  1  1
 19 21  1  0
 19 22  1  1
 20 23  1  0
 21 24  2  0
  7  8  1  0
 15 13  1  6
 18 19  1  0
 21 23  1  0
M  END
