
     RDKit          3D

 29 33  0  0  0  0  0  0  0  0999 V2000
    9.9452   -0.7026   -0.8942 O   0  0  0  0  0  0  0  0  0  0  0  0
    9.6753   -0.5857    0.2973 C   0  0  0  0  0  0  0  0  0  0  0  0
    9.1804    0.7083    0.8189 C   0  0  0  0  0  0  0  0  0  0  0  0
    9.7005   -1.7424    1.2588 C   0  0  0  0  0  0  0  0  0  0  0  0
    9.0031    0.9145    2.1391 C   0  0  0  0  0  0  0  0  0  0  0  0
   10.2487   -1.2524    2.5844 C   0  0  0  0  0  0  0  0  0  0  0  0
    9.4403   -0.0810    3.2307 C   0  0  2  0  0  0  0  0  0  0  0  0
    8.0802    2.0527    2.5210 C   0  0  0  0  0  0  0  0  0  0  0  0
    8.0835   -0.5031    3.8675 C   0  0  2  0  0  0  0  0  0  0  0  0
   10.4244    0.5075    4.2718 C   0  0  0  0  0  0  0  0  0  0  0  0
    7.6663    2.0917    3.9985 C   0  0  2  0  0  0  0  0  0  0  0  0
    7.3250    0.6904    4.6135 C   0  0  1  0  0  0  0  0  0  0  0  0
    8.0989   -1.7643    4.7557 C   0  0  0  0  0  0  0  0  0  0  0  0
    6.7080    3.2708    4.2525 C   0  0  0  0  0  0  0  0  0  0  0  0
    5.8687    0.1729    4.7650 C   0  0  1  0  0  0  0  0  0  0  0  0
    6.6698   -2.2111    5.1105 C   0  0  0  0  0  0  0  0  0  0  0  0
    7.1642    4.6004    3.6319 C   0  0  0  0  0  0  0  0  0  0  0  0
    5.8494   -1.0724    5.7137 C   0  0  2  0  0  0  0  0  0  0  0  0
    4.6804    0.9880    5.2728 C   0  0  0  0  0  0  0  0  0  0  0  0
    6.0475    5.3700    2.9655 C   0  0  0  0  0  0  0  0  0  0  0  0
    4.3532   -1.3234    5.7570 C   0  0  0  0  0  0  0  0  0  0  0  0
    6.2856   -0.8110    7.1703 C   0  0  0  0  0  0  0  0  0  0  0  0
    3.5737   -0.0626    5.4615 C   0  0  0  0  0  0  0  0  0  0  0  0
    6.2434    5.9666    1.7125 C   0  0  0  0  0  0  0  0  0  0  0  0
    4.8013    5.5043    3.5933 C   0  0  0  0  0  0  0  0  0  0  0  0
    3.8336   -2.3998    6.0198 O   0  0  0  0  0  0  0  0  0  0  0  0
    5.2151    6.6863    1.1022 C   0  0  0  0  0  0  0  0  0  0  0  0
    3.7742    6.2249    2.9817 C   0  0  0  0  0  0  0  0  0  0  0  0
    3.9814    6.8159    1.7370 C   0  0  0  0  0  0  0  0  0  0  0  0
  1  2  2  0
  2  3  1  0
  2  4  1  0
  3  5  2  0
  4  6  1  0
  5  7  1  0
  5  8  1  0
  7  9  1  0
  7 10  1  1
  8 11  1  0
 12  9  1  0
  9 13  1  1
 11 14  1  6
 12 15  1  0
 13 16  1  0
 14 17  1  0
 15 18  1  0
 15 19  1  1
 17 20  1  0
 18 21  1  0
 18 22  1  1
 19 23  1  0
 20 24  4  0
 20 25  4  0
 21 26  2  0
 24 27  4  0
 25 28  4  0
 27 29  4  0
  6  7  1  0
 12 11  1  6
 16 18  1  0
 21 23  1  0
 28 29  4  0
M  END
