
     RDKit          3D

 28 31  0  0  0  0  0  0  0  0999 V2000
    3.1069    6.5493    2.8899 O   0  0  0  0  0  0  0  0  0  0  0  0
    4.1556    5.9720    3.1683 C   0  0  0  0  0  0  0  0  0  0  0  0
    5.3593    6.2232    2.3268 C   0  0  0  0  0  0  0  0  0  0  0  0
    4.2797    5.0232    4.3009 C   0  0  0  0  0  0  0  0  0  0  0  0
    5.1850    7.0710    1.2461 O   0  0  0  0  0  0  0  0  0  0  0  0
    6.5437    5.6465    2.5956 C   0  0  0  0  0  0  0  0  0  0  0  0
    5.4754    4.4682    4.5607 C   0  0  0  0  0  0  0  0  0  0  0  0
    3.0505    4.7721    5.1338 C   0  0  0  0  0  0  0  0  0  0  0  0
    6.7653    4.6998    3.7820 C   0  0  1  0  0  0  0  0  0  0  0  0
    7.7398    5.8585    1.6956 C   0  0  0  0  0  0  0  0  0  0  0  0
    3.3747    3.9887    6.4078 C   0  0  0  0  0  0  0  0  0  0  0  0
    7.3063    3.3341    3.2119 C   0  0  1  0  0  0  0  0  0  0  0  0
    7.7483    5.3546    4.7790 C   0  0  0  0  0  0  0  0  0  0  0  0
    8.2427    4.5244    1.1524 C   0  0  0  0  0  0  0  0  0  0  0  0
    3.7813    2.5312    6.1607 C   0  0  0  0  0  0  0  0  0  0  0  0
    8.5542    3.5347    2.2828 C   0  0  2  0  0  0  0  0  0  0  0  0
    7.5681    2.2399    4.2886 C   0  0  0  0  0  0  0  0  0  0  0  0
    3.1776    1.5247    7.1462 C   0  0  0  0  0  0  0  0  0  0  0  0
    8.9737    2.1667    1.7386 C   0  0  2  0  0  0  0  0  0  0  0  0
    8.1525    0.9319    3.7221 C   0  0  0  0  0  0  0  0  0  0  0  0
    3.0907    0.1079    6.5743 C   0  0  0  0  0  0  0  0  0  0  0  0
    9.3873    1.2059    2.8713 C   0  0  1  0  0  0  0  0  0  0  0  0
   10.1109    2.0628    0.7279 C   0  0  0  0  0  0  0  0  0  0  0  0
    4.4595   -0.4055    6.1546 C   0  0  0  0  0  0  0  0  0  0  0  0
    9.8899    0.0587    2.0136 C   0  0  0  0  0  0  0  0  0  0  0  0
   10.5761    1.6577    3.7396 C   0  0  0  0  0  0  0  0  0  0  0  0
   10.3627    0.5492    0.6555 C   0  0  0  0  0  0  0  0  0  0  0  0
    9.9373   -1.1101    2.3729 O   0  0  0  0  0  0  0  0  0  0  0  0
  1  2  2  0
  2  3  1  0
  2  4  1  0
  3  5  1  0
  3  6  2  0
  4  7  2  0
  4  8  1  0
  6  9  1  0
  6 10  1  0
  8 11  1  0
  9 12  1  0
  9 13  1  1
 10 14  1  0
 11 15  1  0
 12 16  1  0
 12 17  1  1
 15 18  1  0
 16 19  1  0
 17 20  1  0
 18 21  1  0
 19 22  1  0
 19 23  1  6
 21 24  1  0
 22 25  1  0
 22 26  1  1
 23 27  1  0
 25 28  2  0
  7  9  1  0
 16 14  1  6
 20 22  1  0
 25 27  1  0
M  END
