
     RDKit          3D

 21 24  0  0  0  0  0  0  0  0999 V2000
    7.0951    0.0194    2.9441 F   0  0  0  0  0  0  0  0  0  0  0  0
    7.6653    1.2333    2.9690 C   0  0  0  0  0  0  0  0  0  0  0  0
    8.9299    1.4025    2.4165 C   0  0  0  0  0  0  0  0  0  0  0  0
    6.9881    2.3009    3.5519 C   0  0  0  0  0  0  0  0  0  0  0  0
    9.5957    0.3535    1.8495 O   0  0  0  0  0  0  0  0  0  0  0  0
    9.5383    2.6479    2.4318 C   0  0  0  0  0  0  0  0  0  0  0  0
    7.5793    3.5697    3.5787 C   0  0  0  0  0  0  0  0  0  0  0  0
    8.8626    3.7338    3.0033 C   0  0  0  0  0  0  0  0  0  0  0  0
    6.9647    4.8017    4.2370 C   0  0  1  0  0  0  0  0  0  0  0  0
    9.4797    5.1088    3.0253 C   0  0  0  0  0  0  0  0  0  0  0  0
    7.0895    6.0458    3.2872 C   0  0  0  0  0  0  0  0  0  0  0  0
    5.5386    4.6311    4.8231 C   0  0  0  0  0  0  0  0  0  0  0  0
    8.4445    6.1203    2.5382 C   0  0  0  0  0  0  0  0  0  0  0  0
    5.9081    6.0512    2.3037 C   0  0  1  0  0  0  0  0  0  0  0  0
    4.3988    4.7747    3.8027 C   0  0  0  0  0  0  0  0  0  0  0  0
    4.5433    6.0770    3.0219 C   0  0  2  0  0  0  0  0  0  0  0  0
    5.7923    7.1593    1.2592 C   0  0  0  0  0  0  0  0  0  0  0  0
    3.6547    6.2362    1.8014 C   0  0  0  0  0  0  0  0  0  0  0  0
    4.2776    7.3044    3.9146 C   0  0  0  0  0  0  0  0  0  0  0  0
    4.3950    6.9216    0.6658 C   0  0  0  0  0  0  0  0  0  0  0  0
    2.4832    5.8879    1.7427 O   0  0  0  0  0  0  0  0  0  0  0  0
  1  2  1  0
  2  3  4  0
  2  4  4  0
  3  5  1  0
  3  6  4  0
  4  7  4  0
  6  8  4  0
  7  9  1  0
  8 10  1  0
  9 11  1  0
  9 12  1  6
 10 13  1  0
 11 14  1  0
 12 15  1  0
 14 16  1  0
 14 17  1  6
 16 18  1  0
 16 19  1  1
 17 20  1  0
 18 21  2  0
  7  8  4  0
 11 13  1  0
 15 16  1  0
 18 20  1  0
M  END
