
     RDKit          3D

 23 26  0  0  0  0  0  0  0  0999 V2000
    4.5672    4.0717    6.0933 S   0  0  0  0  0  0  0  0  0  0  0  0
    5.5311    5.2434    5.0713 C   0  0  0  0  0  0  0  0  0  0  0  0
    2.9632    4.9054    6.0346 C   0  0  0  0  0  0  0  0  0  0  0  0
    5.4691    5.0795    3.5105 C   0  0  1  0  0  0  0  0  0  0  0  0
    6.1403    6.2280    2.7393 C   0  0  0  0  0  0  0  0  0  0  0  0
    6.2399    3.7719    3.0817 C   0  0  0  0  0  0  0  0  0  0  0  0
    3.9890    4.9712    3.0348 C   0  0  0  0  0  0  0  0  0  0  0  0
    5.4558    7.2770    2.2465 C   0  0  0  0  0  0  0  0  0  0  0  0
    7.6079    6.1030    2.3870 C   0  0  0  0  0  0  0  0  0  0  0  0
    7.7446    3.8022    3.5227 C   0  0  2  0  0  0  0  0  0  0  0  0
    5.5832    2.4255    3.4786 C   0  0  0  0  0  0  0  0  0  0  0  0
    3.2090    6.2813    3.0168 C   0  0  0  0  0  0  0  0  0  0  0  0
    3.9881    7.4116    2.3935 C   0  0  0  0  0  0  0  0  0  0  0  0
    8.4025    5.1732    3.2958 C   0  0  0  0  0  0  0  0  0  0  0  0
    8.4337    2.6195    2.8335 C   0  0  2  0  0  0  0  0  0  0  0  0
    6.3695    1.2103    2.9383 C   0  0  0  0  0  0  0  0  0  0  0  0
    3.4388    8.4384    1.9979 O   0  0  0  0  0  0  0  0  0  0  0  0
    7.8434    1.2764    3.3349 C   0  0  1  0  0  0  0  0  0  0  0  0
    9.9413    2.4171    2.9391 C   0  0  0  0  0  0  0  0  0  0  0  0
    8.7930    0.3419    2.6084 C   0  0  0  0  0  0  0  0  0  0  0  0
    8.0136    0.9760    4.8379 C   0  0  0  0  0  0  0  0  0  0  0  0
   10.1358    1.0076    2.3565 C   0  0  0  0  0  0  0  0  0  0  0  0
    8.5295   -0.8097    2.2904 O   0  0  0  0  0  0  0  0  0  0  0  0
  1  2  1  0
  1  3  1  0
  4  2  1  1
  4  5  1  0
  4  6  1  0
  4  7  1  0
  5  8  2  0
  5  9  1  0
  6 10  1  0
  6 11  1  0
  7 12  1  0
  8 13  1  0
  9 14  1  0
 10 15  1  0
 11 16  1  0
 13 17  2  0
 15 18  1  0
 15 19  1  1
 18 20  1  0
 18 21  1  1
 19 22  1  0
 20 23  2  0
 10 14  1  6
 12 13  1  0
 16 18  1  0
 20 22  1  0
M  END
