
     RDKit          3D

 20 23  0  0  0  0  0  0  0  0999 V2000
    2.5926    6.2416    3.1098 O   0  0  0  0  0  0  0  0  0  0  0  0
    3.8144    6.3180    3.0969 C   0  0  0  0  0  0  0  0  0  0  0  0
    4.7489    5.3424    3.7943 C   0  0  2  0  0  0  0  0  0  0  0  0
    4.5793    7.4270    2.4020 C   0  0  0  0  0  0  0  0  0  0  0  0
    6.0257    5.5989    2.9649 C   0  0  0  0  0  0  0  0  0  0  0  0
    4.3660    3.8655    3.6867 C   0  0  0  0  0  0  0  0  0  0  0  0
    4.8177    5.7790    5.2693 C   0  0  0  0  0  0  0  0  0  0  0  0
    6.0376    7.1120    2.7523 C   0  0  0  0  0  0  0  0  0  0  0  0
    7.2540    4.9380    3.6090 C   0  0  1  0  0  0  0  0  0  0  0  0
    5.5723    2.9550    3.3986 C   0  0  0  0  0  0  0  0  0  0  0  0
    6.9223    3.4480    3.9878 C   0  0  1  0  0  0  0  0  0  0  0  0
    8.5222    5.1079    2.7509 C   0  0  0  0  0  0  0  0  0  0  0  0
    8.0029    2.4471    3.6121 C   0  0  0  0  0  0  0  0  0  0  0  0
    8.7177    3.9729    1.7539 C   0  0  0  0  0  0  0  0  0  0  0  0
    8.8431    2.6801    2.5097 C   0  0  0  0  0  0  0  0  0  0  0  0
    8.1324    1.2483    4.3308 C   0  0  0  0  0  0  0  0  0  0  0  0
    9.7791    1.7108    2.1237 C   0  0  0  0  0  0  0  0  0  0  0  0
    9.0769    0.2944    3.9528 C   0  0  0  0  0  0  0  0  0  0  0  0
    9.8884    0.5299    2.8515 C   0  0  0  0  0  0  0  0  0  0  0  0
   10.7921   -0.4333    2.5115 O   0  0  0  0  0  0  0  0  0  0  0  0
  1  2  2  0
  2  3  1  0
  2  4  1  0
  3  5  1  0
  3  6  1  0
  3  7  1  1
  4  8  1  0
  5  9  1  0
  6 10  1  0
  9 11  1  0
  9 12  1  6
 11 13  1  0
 12 14  1  0
 13 15  4  0
 13 16  4  0
 15 17  4  0
 16 18  4  0
 17 19  4  0
 19 20  1  0
  5  8  1  0
 11 10  1  6
 14 15  1  0
 18 19  4  0
M  END
