
     RDKit          3D

 24 27  0  0  0  0  0  0  0  0999 V2000
    3.5449    3.4100    6.4697 I   0  0  0  0  0  0  0  0  0  0  0  0
    3.5341    5.4631    5.7116 C   0  0  0  0  0  0  0  0  0  0  0  0
    4.8962    5.7940    5.0790 C   0  0  1  0  0  0  0  0  0  0  0  0
    5.9079    5.3042    5.9696 O   0  0  0  0  0  0  0  0  0  0  0  0
    5.1497    5.2490    3.5980 C   0  0  1  0  0  0  0  0  0  0  0  0
    5.9615    6.2628    2.7775 C   0  0  0  0  0  0  0  0  0  0  0  0
    5.8578    3.8014    3.7053 C   0  0  2  0  0  0  0  0  0  0  0  0
    3.7514    5.0998    2.8956 C   0  0  0  0  0  0  0  0  0  0  0  0
    5.4040    7.1922    1.9778 C   0  0  0  0  0  0  0  0  0  0  0  0
    7.4598    6.2031    2.8590 C   0  0  0  0  0  0  0  0  0  0  0  0
    7.4227    3.7717    3.5040 C   0  0  2  0  0  0  0  0  0  0  0  0
    5.2012    2.6327    2.9101 C   0  0  0  0  0  0  0  0  0  0  0  0
    3.0268    6.3881    2.5201 C   0  0  0  0  0  0  0  0  0  0  0  0
    3.9414    7.3507    1.8165 C   0  0  0  0  0  0  0  0  0  0  0  0
    7.9320    4.8120    2.5022 C   0  0  0  0  0  0  0  0  0  0  0  0
    7.9013    2.3814    3.0473 C   0  0  2  0  0  0  0  0  0  0  0  0
    5.7218    1.2295    3.3110 C   0  0  0  0  0  0  0  0  0  0  0  0
    3.5125    8.2679    1.1184 O   0  0  0  0  0  0  0  0  0  0  0  0
    7.1816    1.2335    3.7683 C   0  0  1  0  0  0  0  0  0  0  0  0
    9.3854    2.0447    3.1700 C   0  0  0  0  0  0  0  0  0  0  0  0
    8.0345    0.0786    3.2646 C   0  0  0  0  0  0  0  0  0  0  0  0
    7.3078    1.2210    5.3019 C   0  0  0  0  0  0  0  0  0  0  0  0
    9.4219    0.5429    2.8604 C   0  0  0  0  0  0  0  0  0  0  0  0
    7.6656   -1.0874    3.2149 O   0  0  0  0  0  0  0  0  0  0  0  0
  1  2  1  0
  2  3  1  0
  3  4  1  1
  5  3  1  0
  5  6  1  0
  5  7  1  0
  5  8  1  6
  6  9  2  0
  6 10  1  0
  7 11  1  0
  7 12  1  6
  8 13  1  0
  9 14  1  0
 10 15  1  0
 11 16  1  0
 12 17  1  0
 14 18  2  0
 16 19  1  0
 16 20  1  1
 19 21  1  0
 19 22  1  1
 20 23  1  0
 21 24  2  0
 11 15  1  6
 13 14  1  0
 17 19  1  0
 21 23  1  0
M  END
