
     RDKit          3D

 37 40  0  0  0  0  0  0  0  0999 V2000
    4.3952    4.4561    6.9256 O   0  0  0  0  0  0  0  0  0  0  0  0
    3.9633    3.5053    6.2787 C   0  0  0  0  0  0  0  0  0  0  0  0
    3.2115    2.4996    6.8617 N   0  0  0  0  0  0  0  0  0  0  0  0
    4.2424    3.2498    4.7589 C   0  0  0  0  0  0  0  0  0  0  0  0
    3.7862    1.2175    7.1730 C   0  0  0  0  0  0  0  0  0  0  0  0
    4.7801    4.5022    4.1557 N   0  0  0  0  0  0  0  0  0  0  0  0
    5.0052    1.9646    4.4614 C   0  0  0  0  0  0  0  0  0  0  0  0
    2.7757    0.3309    7.8486 C   0  0  0  0  0  0  0  0  0  0  0  0
    5.6706    5.3092    5.0014 C   0  0  0  0  0  0  0  0  0  0  0  0
    5.3052    4.3675    2.7921 C   0  0  0  0  0  0  0  0  0  0  0  0
    4.6965    1.1417    3.3666 C   0  0  0  0  0  0  0  0  0  0  0  0
    6.0645    1.5756    5.2976 C   0  0  0  0  0  0  0  0  0  0  0  0
    2.3124    0.6418    9.1356 C   0  0  0  0  0  0  0  0  0  0  0  0
    2.3140   -0.8360    7.2242 C   0  0  0  0  0  0  0  0  0  0  0  0
    7.1932    5.0599    4.8464 C   0  0  0  0  0  0  0  0  0  0  0  0
    6.8193    4.0994    2.6702 C   0  0  0  0  0  0  0  0  0  0  0  0
    5.4085   -0.0373    3.1279 C   0  0  0  0  0  0  0  0  0  0  0  0
    6.7751    0.3950    5.0609 C   0  0  0  0  0  0  0  0  0  0  0  0
    1.3924   -0.1884    9.7777 C   0  0  0  0  0  0  0  0  0  0  0  0
    1.3933   -1.6647    7.8682 C   0  0  0  0  0  0  0  0  0  0  0  0
    7.6322    5.0600    3.4402 N   0  0  0  0  0  0  0  0  0  0  0  0
    6.4443   -0.4273    3.9804 C   0  0  0  0  0  0  0  0  0  0  0  0
    0.9307   -1.3400    9.1431 C   0  0  0  0  0  0  0  0  0  0  0  0
    9.0659    4.7445    3.2801 C   0  0  0  0  0  0  0  0  0  0  0  0
    7.2336   -1.6726    3.7090 C   0  0  0  0  0  0  0  0  0  0  0  0
    9.4134    3.3548    2.6884 C   0  0  0  0  0  0  0  0  0  0  0  0
    9.1083    3.2819    1.2902 O   0  0  0  0  0  0  0  0  0  0  0  0
    8.7548    2.1853    3.4307 C   0  0  0  0  0  0  0  0  0  0  0  0
    9.7118    1.1544    3.6796 O   0  0  0  0  0  0  0  0  0  0  0  0
    9.7564    0.0582    2.8689 C   0  0  0  0  0  0  0  0  0  0  0  0
   10.4061   -1.1459    3.1226 C   0  0  0  0  0  0  0  0  0  0  0  0
    9.0884    0.2175    1.6514 C   0  0  0  0  0  0  0  0  0  0  0  0
   10.3654   -2.1811    2.1798 C   0  0  0  0  0  0  0  0  0  0  0  0
    9.0495   -0.8144    0.7056 C   0  0  0  0  0  0  0  0  0  0  0  0
    9.6874   -2.0238    0.9700 C   0  0  0  0  0  0  0  0  0  0  0  0
    9.7243   -3.1134    0.1456 O   0  0  0  0  0  0  0  0  0  0  0  0
    8.4749   -3.6921   -0.2081 C   0  0  0  0  0  0  0  0  0  0  0  0
  1  2  2  0
  2  3  1  0
  2  4  1  0
  3  5  1  0
  4  6  1  0
  4  7  1  0
  5  8  1  0
  6  9  1  0
  6 10  1  0
  7 11  4  0
  7 12  4  0
  8 13  4  0
  8 14  4  0
  9 15  1  0
 10 16  1  0
 11 17  4  0
 12 18  4  0
 13 19  4  0
 14 20  4  0
 15 21  1  0
 17 22  4  0
 19 23  4  0
 21 24  1  0
 22 25  1  0
 24 26  1  0
 26 27  1  0
 26 28  1  0
 28 29  1  0
 29 30  1  0
 30 31  4  0
 30 32  4  0
 31 33  4  0
 32 34  4  0
 33 35  4  0
 35 36  1  0
 36 37  1  0
 16 21  1  0
 18 22  4  0
 20 23  4  0
 34 35  4  0
M  END
