
     RDKit          3D

 11 12  0  0  0  0  0  0  0  0999 V2000
    3.6162    7.0515    1.5932 N   0  0  0  0  0  0  0  0  0  0  0  0
    4.5667    6.1972    2.0566 C   0  0  0  0  0  0  0  0  0  0  0  0
    3.9801    7.8689    0.5850 C   0  0  0  0  0  0  0  0  0  0  0  0
    5.8682    6.1157    1.5638 C   0  0  0  0  0  0  0  0  0  0  0  0
    5.2442    7.8729    0.0202 C   0  0  0  0  0  0  0  0  0  0  0  0
    6.8294    5.1647    2.1228 C   0  0  0  0  0  0  0  0  0  0  0  0
    6.1981    6.9841    0.5179 C   0  0  0  0  0  0  0  0  0  0  0  0
    6.4631    4.2511    3.0386 N   0  0  0  0  0  0  0  0  0  0  0  0
    8.2169    5.0329    1.8316 C   0  0  0  0  0  0  0  0  0  0  0  0
    7.5831    3.5682    3.3136 N   0  0  0  0  0  0  0  0  0  0  0  0
    8.6672    3.9982    2.6147 C   0  0  0  0  0  0  0  0  0  0  0  0
  1  2  4  0
  1  3  4  0
  2  4  4  0
  3  5  4  0
  4  6  1  0
  4  7  4  0
  6  8  4  0
  6  9  4  0
  8 10  4  0
  9 11  4  0
  5  7  4  0
 10 11  4  0
M  END
