
     RDKit          3D

 27 30  0  0  0  0  0  0  0  0999 V2000
    2.5413    0.6410    0.8883 O   0  0  0  0  0  0  0  0  0  0  0  0
    3.3135    0.4143    1.8161 C   0  0  0  0  0  0  0  0  0  0  0  0
    4.1019    1.5271    2.3995 C   0  0  0  0  0  0  0  0  0  0  0  0
    3.5781   -0.9761    2.3252 C   0  0  0  0  0  0  0  0  0  0  0  0
    4.9117    1.3562    3.4628 C   0  0  0  0  0  0  0  0  0  0  0  0
    3.8338   -0.9218    3.8191 C   0  0  0  0  0  0  0  0  0  0  0  0
    5.0089    0.0158    4.2229 C   0  0  1  0  0  0  0  0  0  0  0  0
    5.9385    2.4028    3.8960 C   0  0  1  0  0  0  0  0  0  0  0  0
    6.4204   -0.5671    3.8565 C   0  0  1  0  0  0  0  0  0  0  0  0
    4.8465    0.2203    5.7513 C   0  0  0  0  0  0  0  0  0  0  0  0
    7.3283    1.8263    3.5439 C   0  0  0  0  0  0  0  0  0  0  0  0
    5.8124    3.8319    3.3162 C   0  0  0  0  0  0  0  0  0  0  0  0
    7.5719    0.4488    4.1914 C   0  0  2  0  0  0  0  0  0  0  0  0
    6.7098   -1.9765    4.4388 C   0  0  0  0  0  0  0  0  0  0  0  0
    7.0835    4.6918    3.3976 C   0  0  0  0  0  0  0  0  0  0  0  0
    8.8957   -0.1738    3.7409 C   0  0  2  0  0  0  0  0  0  0  0  0
    8.1215   -2.5019    4.1129 C   0  0  0  0  0  0  0  0  0  0  0  0
    6.9888    6.0865    2.7692 C   0  0  0  0  0  0  0  0  0  0  0  0
    9.1913   -1.4853    4.4985 C   0  0  1  0  0  0  0  0  0  0  0  0
   10.1916    0.6215    3.8519 C   0  0  0  0  0  0  0  0  0  0  0  0
    6.0824    6.2010    1.5395 C   0  0  0  0  0  0  0  0  0  0  0  0
   10.5906   -1.7343    3.9649 C   0  0  0  0  0  0  0  0  0  0  0  0
    9.3211   -1.3675    6.0286 C   0  0  0  0  0  0  0  0  0  0  0  0
   11.2644   -0.4363    3.5520 C   0  0  0  0  0  0  0  0  0  0  0  0
    4.6415    6.6349    1.8195 C   0  0  0  0  0  0  0  0  0  0  0  0
   11.1251   -2.8331    3.8983 O   0  0  0  0  0  0  0  0  0  0  0  0
    3.8358    6.9125    0.5600 C   0  0  0  0  0  0  0  0  0  0  0  0
  1  2  2  0
  2  3  1  0
  2  4  1  0
  3  5  2  0
  4  6  1  0
  5  7  1  0
  5  8  1  0
  7  9  1  0
  7 10  1  1
  8 11  1  0
  8 12  1  6
  9 13  1  0
  9 14  1  1
 12 15  1  0
 13 16  1  0
 14 17  1  0
 15 18  1  0
 16 19  1  0
 16 20  1  1
 18 21  1  0
 19 22  1  0
 19 23  1  1
 20 24  1  0
 21 25  1  0
 22 26  2  0
 25 27  1  0
  6  7  1  0
 13 11  1  6
 17 19  1  0
 22 24  1  0
M  END
