
     RDKit          3D

 33 37  0  0  0  0  0  0  0  0999 V2000
    3.3591    6.7074    3.4953 F   0  0  0  0  0  0  0  0  0  0  0  0
    3.5986    5.5535    4.1312 C   0  0  0  0  0  0  0  0  0  0  0  0
    4.2599    4.5303    3.4660 C   0  0  0  0  0  0  0  0  0  0  0  0
    3.1833    5.3959    5.4462 C   0  0  0  0  0  0  0  0  0  0  0  0
    4.5098    3.3280    4.1295 C   0  0  0  0  0  0  0  0  0  0  0  0
    3.4321    4.1925    6.1117 C   0  0  0  0  0  0  0  0  0  0  0  0
    4.1047    3.1407    5.4657 C   0  0  0  0  0  0  0  0  0  0  0  0
    4.3998    1.7992    6.1108 C   0  0  0  0  0  0  0  0  0  0  0  0
    4.7133    0.7213    5.1852 N   0  0  0  0  0  0  0  0  0  0  0  0
    5.9290    0.4965    4.5692 C   0  0  0  0  0  0  0  0  0  0  0  0
    3.8870   -0.3480    4.9046 C   0  0  0  0  0  0  0  0  0  0  0  0
    5.9222   -0.6541    3.9346 N   0  0  0  0  0  0  0  0  0  0  0  0
    6.9778    1.3607    4.6870 N   0  0  0  0  0  0  0  0  0  0  0  0
    4.6716   -1.1821    4.1168 C   0  0  0  0  0  0  0  0  0  0  0  0
    2.5678   -0.6607    5.2571 C   0  0  0  0  0  0  0  0  0  0  0  0
    8.2783    0.7483    4.9807 C   0  0  0  0  0  0  0  0  0  0  0  0
    7.0407    2.4717    3.7228 C   0  0  0  0  0  0  0  0  0  0  0  0
    4.1353   -2.3881    3.6410 C   0  0  0  0  0  0  0  0  0  0  0  0
    2.0492   -1.8675    4.7731 C   0  0  0  0  0  0  0  0  0  0  0  0
    8.9591    0.1882    3.7313 C   0  0  0  0  0  0  0  0  0  0  0  0
    8.2682    2.4007    2.8071 C   0  0  0  0  0  0  0  0  0  0  0  0
    2.8175   -2.7194    3.9777 C   0  0  0  0  0  0  0  0  0  0  0  0
    8.5862    0.9423    2.4327 C   0  0  0  0  0  0  0  0  0  0  0  0
    9.6490    0.8112    1.4015 N   0  0  0  0  0  0  0  0  0  0  0  0
   10.6814   -0.2058    1.6943 C   0  0  0  0  0  0  0  0  0  0  0  0
   10.2659    2.1035    1.0786 C   0  0  0  0  0  0  0  0  0  0  0  0
   10.3422   -1.7061    1.5460 C   0  0  0  0  0  0  0  0  0  0  0  0
   10.8841   -2.6157    2.6211 C   0  0  0  0  0  0  0  0  0  0  0  0
   12.1969   -3.1022    2.5442 C   0  0  0  0  0  0  0  0  0  0  0  0
   10.0921   -2.9740    3.7211 C   0  0  0  0  0  0  0  0  0  0  0  0
   12.7021   -3.9395    3.5406 C   0  0  0  0  0  0  0  0  0  0  0  0
   10.5995   -3.8110    4.7166 C   0  0  0  0  0  0  0  0  0  0  0  0
   11.9035   -4.2942    4.6256 C   0  0  0  0  0  0  0  0  0  0  0  0
  1  2  1  0
  2  3  4  0
  2  4  4  0
  3  5  4  0
  4  6  4  0
  5  7  4  0
  7  8  1  0
  8  9  1  0
  9 10  4  0
  9 11  4  0
 10 12  4  0
 10 13  1  0
 11 14  4  0
 11 15  4  0
 13 16  1  0
 13 17  1  0
 14 18  4  0
 15 19  4  0
 16 20  1  0
 17 21  1  0
 18 22  4  0
 20 23  1  0
 23 24  1  0
 24 25  1  0
 24 26  1  0
 25 27  1  0
 27 28  1  0
 28 29  4  0
 28 30  4  0
 29 31  4  0
 30 32  4  0
 31 33  4  0
  6  7  4  0
 12 14  4  0
 19 22  4  0
 21 23  1  0
 32 33  4  0
M  END
