
     RDKit          3D

 40 43  0  0  0  0  0  0  0  0999 V2000
    6.3664   -4.3243    7.9025 O   0  0  0  0  0  0  0  0  0  0  0  0
    6.9199   -3.5352    7.1273 C   0  0  0  0  0  0  0  0  0  0  0  0
    8.1916   -3.0723    7.3867 N   0  0  0  0  0  0  0  0  0  0  0  0
    6.2119   -3.0375    5.8155 C   0  0  0  0  0  0  0  0  0  0  0  0
    9.3771   -3.6929    6.8445 C   0  0  0  0  0  0  0  0  0  0  0  0
    5.5634   -1.6926    5.9610 N   0  0  0  0  0  0  0  0  0  0  0  0
    7.1492   -3.0391    4.6004 C   0  0  0  0  0  0  0  0  0  0  0  0
    9.2438   -5.1933    6.9214 C   0  0  0  0  0  0  0  0  0  0  0  0
    4.3753   -1.6042    5.0727 C   0  0  0  0  0  0  0  0  0  0  0  0
    5.1793   -1.3387    7.3355 C   0  0  0  0  0  0  0  0  0  0  0  0
    8.0436   -1.9845    4.3926 C   0  0  0  0  0  0  0  0  0  0  0  0
    7.1163   -4.0873    3.6611 C   0  0  0  0  0  0  0  0  0  0  0  0
    8.7652   -5.9298    5.8296 C   0  0  0  0  0  0  0  0  0  0  0  0
    9.6593   -5.8798    8.0704 C   0  0  0  0  0  0  0  0  0  0  0  0
    3.3063   -0.5609    5.4822 C   0  0  0  0  0  0  0  0  0  0  0  0
    4.5014    0.0559    7.4638 C   0  0  0  0  0  0  0  0  0  0  0  0
    8.8705   -1.9727    3.2638 C   0  0  0  0  0  0  0  0  0  0  0  0
    7.9377   -4.0663    2.5301 C   0  0  0  0  0  0  0  0  0  0  0  0
    8.6875   -7.3264    5.8903 C   0  0  0  0  0  0  0  0  0  0  0  0
    9.5767   -7.2728    8.1289 C   0  0  0  0  0  0  0  0  0  0  0  0
    3.8010    0.5762    6.2702 N   0  0  0  0  0  0  0  0  0  0  0  0
    8.8116   -3.0027    2.3209 C   0  0  0  0  0  0  0  0  0  0  0  0
    9.0878   -8.0031    7.0436 C   0  0  0  0  0  0  0  0  0  0  0  0
    4.6817    1.4634    5.4872 C   0  0  0  0  0  0  0  0  0  0  0  0
    9.6552   -2.8616    1.2520 O   0  0  0  0  0  0  0  0  0  0  0  0
    9.0605   -9.3559    7.2351 O   0  0  0  0  0  0  0  0  0  0  0  0
    4.5688    2.9706    5.8143 C   0  0  0  0  0  0  0  0  0  0  0  0
    9.0437   -2.6103   -0.0085 C   0  0  0  0  0  0  0  0  0  0  0  0
    7.8647  -10.0307    6.8715 C   0  0  0  0  0  0  0  0  0  0  0  0
    3.5697    3.1403    6.8336 O   0  0  0  0  0  0  0  0  0  0  0  0
    4.2162    3.7967    4.5646 C   0  0  0  0  0  0  0  0  0  0  0  0
    5.1235    3.4517    3.4982 O   0  0  0  0  0  0  0  0  0  0  0  0
    5.7394    4.5763    3.0107 C   0  0  0  0  0  0  0  0  0  0  0  0
    7.1432    4.6048    2.9691 C   0  0  0  0  0  0  0  0  0  0  0  0
    4.9767    5.6936    2.6333 C   0  0  0  0  0  0  0  0  0  0  0  0
    7.7781    5.7620    2.4979 C   0  0  0  0  0  0  0  0  0  0  0  0
    7.9662    3.4560    3.4833 C   0  0  0  0  0  0  0  0  0  0  0  0
    5.6371    6.8192    2.1271 C   0  0  0  0  0  0  0  0  0  0  0  0
    3.4795    5.7071    2.7257 C   0  0  0  0  0  0  0  0  0  0  0  0
    7.0298    6.8533    2.0621 C   0  0  0  0  0  0  0  0  0  0  0  0
  1  2  2  0
  2  3  1  0
  2  4  1  0
  3  5  1  0
  4  6  1  0
  4  7  1  0
  5  8  1  0
  6  9  1  0
  6 10  1  0
  7 11  4  0
  7 12  4  0
  8 13  4  0
  8 14  4  0
  9 15  1  0
 10 16  1  0
 11 17  4  0
 12 18  4  0
 13 19  4  0
 14 20  4  0
 15 21  1  0
 17 22  4  0
 19 23  4  0
 21 24  1  0
 22 25  1  0
 23 26  1  0
 24 27  1  0
 25 28  1  0
 26 29  1  0
 27 30  1  0
 27 31  1  0
 31 32  1  0
 32 33  1  0
 33 34  4  0
 33 35  4  0
 34 36  4  0
 34 37  1  0
 35 38  4  0
 35 39  1  0
 36 40  4  0
 16 21  1  0
 18 22  4  0
 20 23  4  0
 38 40  4  0
M  END
