
     RDKit          3D

 28 32  0  0  0  0  0  0  0  0999 V2000
    6.9542   -1.6291    0.0732 O   0  0  0  0  0  0  0  0  0  0  0  0
    6.4809   -1.1964    1.1166 C   0  0  0  0  0  0  0  0  0  0  0  0
    7.1960   -0.1877    1.9259 C   0  0  0  0  0  0  0  0  0  0  0  0
    5.1597   -1.6480    1.5959 C   0  0  0  0  0  0  0  0  0  0  0  0
    6.7103    0.2558    3.1000 C   0  0  0  0  0  0  0  0  0  0  0  0
    4.6718   -1.2176    2.7666 C   0  0  0  0  0  0  0  0  0  0  0  0
    7.3892    1.3078    3.8667 C   0  0  0  0  0  0  0  0  0  0  0  0
    5.4103   -0.2759    3.7087 C   0  0  2  0  0  0  0  0  0  0  0  0
    8.8235    1.6367    3.7188 C   0  0  0  0  0  0  0  0  0  0  0  0
    6.7180    2.0170    4.7971 C   0  0  0  0  0  0  0  0  0  0  0  0
    4.5080    0.9443    4.0961 C   0  0  0  0  0  0  0  0  0  0  0  0
    5.7386   -1.1427    4.9530 C   0  0  0  0  0  0  0  0  0  0  0  0
    9.2157    2.9191    3.3049 C   0  0  0  0  0  0  0  0  0  0  0  0
    9.8008    0.6684    3.9817 C   0  0  0  0  0  0  0  0  0  0  0  0
    5.2400    1.8889    5.0993 C   0  0  0  0  0  0  0  0  0  0  0  0
    3.9323    1.7117    2.8689 C   0  0  0  0  0  0  0  0  0  0  0  0
   10.5695    3.2304    3.1598 C   0  0  0  0  0  0  0  0  0  0  0  0
   11.1535    0.9813    3.8372 C   0  0  0  0  0  0  0  0  0  0  0  0
    4.4674    3.2330    5.2067 C   0  0  0  0  0  0  0  0  0  0  0  0
    4.5249    3.1004    2.6461 C   0  0  0  0  0  0  0  0  0  0  0  0
   11.5265    2.2568    3.4284 C   0  0  0  0  0  0  0  0  0  0  0  0
    4.3458    4.0022    3.8707 C   0  0  2  0  0  0  0  0  0  0  0  0
    5.0570    4.2473    6.2000 C   0  0  0  0  0  0  0  0  0  0  0  0
   12.8586    2.5173    3.2998 O   0  0  0  0  0  0  0  0  0  0  0  0
    5.4704    5.0189    3.9894 C   0  0  0  0  0  0  0  0  0  0  0  0
    3.0215    4.7772    3.7988 C   0  0  0  0  0  0  0  0  0  0  0  0
    5.9532    5.1898    5.4047 C   0  0  0  0  0  0  0  0  0  0  0  0
    5.9302    5.6536    3.0468 O   0  0  0  0  0  0  0  0  0  0  0  0
  1  2  2  0
  2  3  1  0
  2  4  1  0
  3  5  2  0
  4  6  2  0
  5  7  1  0
  5  8  1  0
  7  9  1  0
  7 10  2  0
  8 11  1  0
  8 12  1  1
  9 13  4  0
  9 14  4  0
 15 10  1  0
 11 16  1  0
 13 17  4  0
 14 18  4  0
 15 19  1  0
 16 20  1  0
 17 21  4  0
 19 22  1  0
 19 23  1  0
 21 24  1  0
 22 25  1  0
 22 26  1  6
 23 27  1  0
 25 28  2  0
  6  8  1  0
 11 15  1  0
 18 21  4  0
 20 22  1  0
 25 27  1  0
M  END
