
     RDKit          3D

 23 26  0  0  0  0  0  0  0  0999 V2000
    4.7131    8.2498    1.5016 O   0  0  0  0  0  0  0  0  0  0  0  0
    5.1408    7.2754    2.1112 C   0  0  0  0  0  0  0  0  0  0  0  0
    4.2695    6.2913    2.8325 C   0  0  0  0  0  0  0  0  0  0  0  0
    6.6009    7.0353    2.1434 C   0  0  0  0  0  0  0  0  0  0  0  0
    2.8847    6.3798    2.8670 O   0  0  0  0  0  0  0  0  0  0  0  0
    4.8467    5.2937    3.5188 C   0  0  0  0  0  0  0  0  0  0  0  0
    7.1519    6.0202    2.8290 C   0  0  0  0  0  0  0  0  0  0  0  0
    2.3253    7.0030    4.0177 C   0  0  0  0  0  0  0  0  0  0  0  0
    6.3361    5.0198    3.6492 C   0  0  2  0  0  0  0  0  0  0  0  0
    8.6408    5.7873    2.7708 C   0  0  0  0  0  0  0  0  0  0  0  0
    6.6755    3.5759    3.1189 C   0  0  1  0  0  0  0  0  0  0  0  0
    6.6764    5.1944    5.1461 C   0  0  0  0  0  0  0  0  0  0  0  0
    8.9423    4.3846    2.2527 C   0  0  0  0  0  0  0  0  0  0  0  0
    8.2215    3.3092    3.0780 C   0  0  2  0  0  0  0  0  0  0  0  0
    5.9168    2.4258    3.8443 C   0  0  0  0  0  0  0  0  0  0  0  0
    8.4524    1.9076    2.5068 C   0  0  2  0  0  0  0  0  0  0  0  0
    6.3028    1.0168    3.3558 C   0  0  0  0  0  0  0  0  0  0  0  0
    7.8140    0.8188    3.3925 C   0  0  1  0  0  0  0  0  0  0  0  0
    9.8721    1.4064    2.2651 C   0  0  0  0  0  0  0  0  0  0  0  0
    8.3577   -0.3998    2.6686 C   0  0  0  0  0  0  0  0  0  0  0  0
    8.3327    0.7365    4.8401 C   0  0  0  0  0  0  0  0  0  0  0  0
    9.6572   -0.0813    1.9486 C   0  0  0  0  0  0  0  0  0  0  0  0
    7.8372   -1.5072    2.6812 O   0  0  0  0  0  0  0  0  0  0  0  0
  1  2  2  0
  2  3  1  0
  2  4  1  0
  3  5  1  0
  3  6  2  0
  4  7  2  0
  5  8  1  0
  6  9  1  0
  7 10  1  0
  9 11  1  0
  9 12  1  1
 10 13  1  0
 11 14  1  0
 11 15  1  1
 14 16  1  0
 15 17  1  0
 16 18  1  0
 16 19  1  1
 18 20  1  0
 18 21  1  1
 19 22  1  0
 20 23  2  0
  7  9  1  0
 14 13  1  6
 17 18  1  0
 20 22  1  0
M  END
