
     RDKit          3D

 21 24  0  0  0  0  0  0  0  0999 V2000
    2.4903    6.1915    4.9328 Br  0  0  0  0  0  0  0  0  0  0  0  0
    4.0834    6.0007    3.9246 C   0  0  0  0  0  0  0  0  0  0  0  0
    4.3823    6.8834    2.8929 C   0  0  0  0  0  0  0  0  0  0  0  0
    4.9639    4.9605    4.2320 C   0  0  0  0  0  0  0  0  0  0  0  0
    3.5577    7.9161    2.5451 O   0  0  0  0  0  0  0  0  0  0  0  0
    5.5600    6.7378    2.1727 C   0  0  0  0  0  0  0  0  0  0  0  0
    6.1538    4.7771    3.5017 C   0  0  0  0  0  0  0  0  0  0  0  0
    6.4600    5.7005    2.4764 C   0  0  0  0  0  0  0  0  0  0  0  0
    7.1407    3.6686    3.8644 C   0  0  2  0  0  0  0  0  0  0  0  0
    7.7111    5.5918    1.6371 C   0  0  0  0  0  0  0  0  0  0  0  0
    8.0938    3.3486    2.6731 C   0  0  1  0  0  0  0  0  0  0  0  0
    6.4976    2.3748    4.4324 C   0  0  0  0  0  0  0  0  0  0  0  0
    8.7615    4.6442    2.2083 C   0  0  0  0  0  0  0  0  0  0  0  0
    9.1059    2.2959    3.1249 C   0  0  1  0  0  0  0  0  0  0  0  0
    7.5177    1.2610    4.7380 C   0  0  0  0  0  0  0  0  0  0  0  0
    8.4268    0.9742    3.5368 C   0  0  2  0  0  0  0  0  0  0  0  0
   10.1991    1.8479    2.1591 C   0  0  0  0  0  0  0  0  0  0  0  0
    9.6818    0.1387    3.8573 C   0  0  2  0  0  0  0  0  0  0  0  0
    7.5981    0.2927    2.4182 C   0  0  0  0  0  0  0  0  0  0  0  0
   10.6655    0.4947    2.7262 C   0  0  0  0  0  0  0  0  0  0  0  0
    9.4449   -1.2548    3.8995 O   0  0  0  0  0  0  0  0  0  0  0  0
  1  2  1  0
  2  3  4  0
  2  4  4  0
  3  5  1  0
  3  6  4  0
  4  7  4  0
  6  8  4  0
  7  9  1  0
  8 10  1  0
  9 11  1  0
  9 12  1  6
 10 13  1  0
 11 14  1  0
 12 15  1  0
 14 16  1  0
 14 17  1  6
 16 18  1  0
 16 19  1  6
 17 20  1  0
 18 21  1  6
  7  8  4  0
 11 13  1  1
 15 16  1  0
 18 20  1  0
M  END
