
     RDKit          3D

 26 29  0  0  0  0  0  0  0  0999 V2000
    3.4799    7.0171    1.8719 O   0  0  0  0  0  0  0  0  0  0  0  0
    3.9661    6.1451    2.5808 C   0  0  0  0  0  0  0  0  0  0  0  0
    5.4112    6.1204    2.8863 C   0  0  0  0  0  0  0  0  0  0  0  0
    3.1355    5.0798    3.1607 C   0  0  0  0  0  0  0  0  0  0  0  0
    5.9822    5.1837    3.6688 C   0  0  0  0  0  0  0  0  0  0  0  0
    3.6836    4.1290    3.9261 C   0  0  0  0  0  0  0  0  0  0  0  0
    5.1625    4.0260    4.2856 C   0  0  1  0  0  0  0  0  0  0  0  0
    7.4885    5.1257    3.9461 C   0  0  1  0  0  0  0  0  0  0  0  0
    5.7501    2.6817    3.7187 C   0  0  1  0  0  0  0  0  0  0  0  0
    5.2229    4.1016    5.8278 C   0  0  0  0  0  0  0  0  0  0  0  0
    8.0153    3.8132    3.3311 C   0  0  0  0  0  0  0  0  0  0  0  0
    8.3773    6.3079    3.4763 C   0  0  0  0  0  0  0  0  0  0  0  0
    7.3001    2.5846    3.9152 C   0  0  2  0  0  0  0  0  0  0  0  0
    5.0327    1.3955    4.2237 C   0  0  0  0  0  0  0  0  0  0  0  0
    8.5580    6.4078    1.9526 C   0  0  0  0  0  0  0  0  0  0  0  0
    7.7820    1.2819    3.2702 C   0  0  2  0  0  0  0  0  0  0  0  0
    5.6505    0.0888    3.6899 C   0  0  0  0  0  0  0  0  0  0  0  0
    7.5053    5.6840    1.1161 C   0  0  0  0  0  0  0  0  0  0  0  0
    7.1528    0.0469    3.9470 C   0  0  1  0  0  0  0  0  0  0  0  0
    9.2712    0.9584    3.2164 C   0  0  0  0  0  0  0  0  0  0  0  0
    6.8779    6.6225    0.0833 C   0  0  0  0  0  0  0  0  0  0  0  0
    7.9384   -1.0274    3.2168 C   0  0  0  0  0  0  0  0  0  0  0  0
    7.4577   -0.1307    5.4461 C   0  0  0  0  0  0  0  0  0  0  0  0
    9.2837   -0.5032    2.7434 C   0  0  0  0  0  0  0  0  0  0  0  0
    6.3851    7.9083    0.7281 C   0  0  0  0  0  0  0  0  0  0  0  0
    7.5566   -2.1782    3.0515 O   0  0  0  0  0  0  0  0  0  0  0  0
  1  2  2  0
  2  3  1  0
  2  4  1  0
  3  5  2  0
  4  6  2  0
  5  7  1  0
  5  8  1  0
  7  9  1  0
  7 10  1  1
  8 11  1  0
  8 12  1  6
  9 13  1  0
  9 14  1  1
 12 15  1  0
 13 16  1  0
 14 17  1  0
 15 18  1  0
 16 19  1  0
 16 20  1  1
 18 21  1  0
 19 22  1  0
 19 23  1  1
 20 24  1  0
 21 25  1  0
 22 26  2  0
  6  7  1  0
 13 11  1  6
 17 19  1  0
 22 24  1  0
M  END
