
     RDKit          3D

 29 31  0  0  0  0  0  0  0  0999 V2000
    9.8362   -1.9306    2.6137 F   0  0  0  0  0  0  0  0  0  0  0  0
   10.0151   -0.5896    2.6564 C   0  0  0  0  0  0  0  0  0  0  0  0
   11.1486   -0.3697    3.3685 F   0  0  0  0  0  0  0  0  0  0  0  0
   10.2654   -0.1723    1.3928 F   0  0  0  0  0  0  0  0  0  0  0  0
    8.8067    0.1411    3.2834 C   0  0  1  0  0  0  0  0  0  0  0  0
    8.8318    1.6774    3.1433 C   0  0  0  0  0  0  0  0  0  0  0  0
    7.5351   -0.4148    2.6022 C   0  0  0  0  0  0  0  0  0  0  0  0
    8.7778   -0.2257    4.7839 C   0  0  0  0  0  0  0  0  0  0  0  0
    7.6255    2.3970    3.0589 C   0  0  0  0  0  0  0  0  0  0  0  0
   10.0162    2.4232    3.0944 C   0  0  0  0  0  0  0  0  0  0  0  0
    7.5865    3.8014    2.9226 C   0  0  0  0  0  0  0  0  0  0  0  0
    9.9957    3.8198    2.9651 C   0  0  0  0  0  0  0  0  0  0  0  0
    8.7898    4.5185    2.8790 C   0  0  0  0  0  0  0  0  0  0  0  0
    6.2337    4.4766    2.8398 C   0  0  0  0  0  0  0  0  0  0  0  0
    8.6858    5.8781    2.7530 O   0  0  0  0  0  0  0  0  0  0  0  0
    5.9415    5.1962    4.0826 N   0  0  0  0  0  0  0  0  0  0  0  0
    9.7098    6.6716    3.3391 C   0  0  0  0  0  0  0  0  0  0  0  0
    4.8602    4.5734    4.8615 C   0  0  2  0  0  0  0  0  0  0  0  0
    3.3911    5.0915    4.5720 C   0  0  0  0  0  0  0  0  0  0  0  0
    5.1925    4.6774    6.3597 C   0  0  0  0  0  0  0  0  0  0  0  0
    2.4434    4.8471    5.6789 N   0  0  0  0  0  0  0  0  0  0  0  0
    3.2640    6.5478    4.1358 C   0  0  0  0  0  0  0  0  0  0  0  0
    4.1285    4.0034    7.2344 C   0  0  0  0  0  0  0  0  0  0  0  0
    2.8207    3.7120    6.4999 C   0  0  0  0  0  0  0  0  0  0  0  0
    3.6009    6.9614    2.8382 C   0  0  0  0  0  0  0  0  0  0  0  0
    2.8301    7.5226    5.0513 C   0  0  0  0  0  0  0  0  0  0  0  0
    3.4859    8.3011    2.4593 C   0  0  0  0  0  0  0  0  0  0  0  0
    2.7177    8.8627    4.6730 C   0  0  0  0  0  0  0  0  0  0  0  0
    3.0427    9.2509    3.3759 C   0  0  0  0  0  0  0  0  0  0  0  0
  1  2  1  0
  2  3  1  0
  2  4  1  0
  2  5  1  0
  5  6  1  0
  5  7  1  6
  5  8  1  0
  6  9  4  0
  6 10  4  0
  9 11  4  0
 10 12  4  0
 11 13  4  0
 11 14  1  0
 13 15  1  0
 14 16  1  0
 15 17  1  0
 18 16  1  6
 18 19  1  0
 18 20  1  0
 19 21  1  0
 19 22  1  0
 20 23  1  0
 21 24  1  0
 22 25  4  0
 22 26  4  0
 25 27  4  0
 26 28  4  0
 27 29  4  0
 12 13  4  0
 23 24  1  0
 28 29  4  0
M  END
