
     RDKit          3D

 24 27  0  0  0  0  0  0  0  0999 V2000
    3.3112    7.9414    2.5091 O   0  0  0  0  0  0  0  0  0  0  0  0
    3.8881    6.9283    2.8990 C   0  0  0  0  0  0  0  0  0  0  0  0
    5.3588    6.8324    2.7516 C   0  0  0  0  0  0  0  0  0  0  0  0
    3.1545    5.8081    3.5808 C   0  0  0  0  0  0  0  0  0  0  0  0
    6.0750    5.7785    3.1899 C   0  0  0  0  0  0  0  0  0  0  0  0
    3.8943    4.4915    3.4053 C   0  0  0  0  0  0  0  0  0  0  0  0
    7.5464    5.7358    3.0595 C   0  0  0  0  0  0  0  0  0  0  0  0
    5.3874    4.5519    3.8358 C   0  0  1  0  0  0  0  0  0  0  0  0
    8.2354    4.5978    3.2797 C   0  0  0  0  0  0  0  0  0  0  0  0
    8.3286    6.9915    2.6960 C   0  0  0  0  0  0  0  0  0  0  0  0
    6.1079    3.2549    3.3300 C   0  0  1  0  0  0  0  0  0  0  0  0
    5.4596    4.6932    5.3748 C   0  0  0  0  0  0  0  0  0  0  0  0
    7.6258    3.2831    3.6730 C   0  0  1  0  0  0  0  0  0  0  0  0
    8.3257    7.3348    1.1997 C   0  0  0  0  0  0  0  0  0  0  0  0
    5.4572    1.9120    3.7540 C   0  0  0  0  0  0  0  0  0  0  0  0
    8.2699    2.0702    2.9922 C   0  0  2  0  0  0  0  0  0  0  0  0
    7.7353    6.2347    0.3287 C   0  0  0  0  0  0  0  0  0  0  0  0
    6.2143    0.6817    3.2130 C   0  0  0  0  0  0  0  0  0  0  0  0
    7.6987    0.7501    3.5608 C   0  0  1  0  0  0  0  0  0  0  0  0
    9.7813    1.8644    3.0370 C   0  0  0  0  0  0  0  0  0  0  0  0
    8.6158   -0.2146    2.8321 C   0  0  0  0  0  0  0  0  0  0  0  0
    7.9220    0.5079    5.0663 C   0  0  0  0  0  0  0  0  0  0  0  0
    9.9454    0.4371    2.4920 C   0  0  0  0  0  0  0  0  0  0  0  0
    8.3387   -1.3781    2.5737 O   0  0  0  0  0  0  0  0  0  0  0  0
  1  2  2  0
  2  3  1  0
  2  4  1  0
  3  5  2  0
  4  6  1  0
  5  7  1  0
  5  8  1  0
  7  9  2  0
  7 10  1  0
  8 11  1  0
  8 12  1  1
 13  9  1  6
 10 14  1  0
 11 15  1  1
 13 16  1  0
 14 17  1  0
 15 18  1  0
 16 19  1  0
 16 20  1  1
 19 21  1  0
 19 22  1  1
 20 23  1  0
 21 24  2  0
  6  8  1  0
 11 13  1  0
 18 19  1  0
 21 23  1  0
M  END
