
     RDKit          3D

 21 23  0  0  0  0  0  0  0  0999 V2000
   11.2287    2.7026    2.5772 Cl  0  0  0  0  0  0  0  0  0  0  0  0
    9.6303    3.1545    3.0243 C   0  0  0  0  0  0  0  0  0  0  0  0
    9.3089    4.5025    3.1724 C   0  0  0  0  0  0  0  0  0  0  0  0
    8.6661    2.1722    3.2357 C   0  0  0  0  0  0  0  0  0  0  0  0
    8.0109    4.8721    3.5351 C   0  0  0  0  0  0  0  0  0  0  0  0
    7.3687    2.5414    3.5984 C   0  0  0  0  0  0  0  0  0  0  0  0
    7.0313    3.8936    3.7517 C   0  0  0  0  0  0  0  0  0  0  0  0
    5.6553    4.2788    4.1247 C   0  0  0  0  0  0  0  0  0  0  0  0
    5.0251    5.3494    3.5966 C   0  0  0  0  0  0  0  0  0  0  0  0
    4.9723    3.3888    5.1407 C   0  0  0  0  0  0  0  0  0  0  0  0
    5.5628    6.2857    2.6012 C   0  0  0  0  0  0  0  0  0  0  0  0
    4.7444    2.0450    4.6348 N   0  0  0  0  0  0  0  0  0  0  0  0
    5.4618    7.6617    2.8370 C   0  0  0  0  0  0  0  0  0  0  0  0
    6.1438    5.8365    1.4100 C   0  0  0  0  0  0  0  0  0  0  0  0
    4.5128    1.8379    3.3249 N   0  0  0  0  0  0  0  0  0  0  0  0
    4.7749    0.8679    5.3235 C   0  0  0  0  0  0  0  0  0  0  0  0
    5.9530    8.5756    1.9025 C   0  0  0  0  0  0  0  0  0  0  0  0
    6.6355    6.7514    0.4766 C   0  0  0  0  0  0  0  0  0  0  0  0
    4.3693    0.5308    3.1486 N   0  0  0  0  0  0  0  0  0  0  0  0
    4.5245   -0.0791    4.3610 C   0  0  0  0  0  0  0  0  0  0  0  0
    6.5412    8.1200    0.7238 C   0  0  0  0  0  0  0  0  0  0  0  0
  1  2  1  0
  2  3  4  0
  2  4  4  0
  3  5  4  0
  4  6  4  0
  5  7  4  0
  7  8  1  0
  8  9  2  0
  8 10  1  0
  9 11  1  0
 10 12  1  0
 11 13  4  0
 11 14  4  0
 12 15  4  0
 12 16  4  0
 13 17  4  0
 14 18  4  0
 15 19  4  0
 16 20  4  0
 17 21  4  0
  6  7  4  0
 18 21  4  0
 19 20  4  0
M  END
