
     RDKit          3D

 21 24  0  0  0  0  0  0  0  0999 V2000
    2.8376    6.2754    3.2784 Cl  0  0  0  0  0  0  0  0  0  0  0  0
    4.5411    6.0260    3.1471 C   0  0  0  0  0  0  0  0  0  0  0  0
    5.4181    7.0913    2.9473 C   0  0  0  0  0  0  0  0  0  0  0  0
    5.0353    4.7226    3.2520 C   0  0  0  0  0  0  0  0  0  0  0  0
    4.9360    8.3673    2.8453 O   0  0  0  0  0  0  0  0  0  0  0  0
    6.7885    6.8579    2.8496 C   0  0  0  0  0  0  0  0  0  0  0  0
    6.4111    4.4649    3.1483 C   0  0  0  0  0  0  0  0  0  0  0  0
    7.2973    5.5508    2.9519 C   0  0  0  0  0  0  0  0  0  0  0  0
    6.9928    3.0727    3.3305 C   0  0  2  0  0  0  0  0  0  0  0  0
    8.7932    5.3553    2.7859 C   0  0  0  0  0  0  0  0  0  0  0  0
    8.2420    2.9338    2.4144 C   0  0  1  0  0  0  0  0  0  0  0  0
    6.0656    1.8506    3.1684 C   0  0  0  0  0  0  0  0  0  0  0  0
    9.3019    3.9112    2.9183 C   0  0  0  0  0  0  0  0  0  0  0  0
    8.6526    1.4691    2.2429 C   0  0  2  0  0  0  0  0  0  0  0  0
    6.7541    0.5166    3.5564 C   0  0  0  0  0  0  0  0  0  0  0  0
    8.2837    0.5503    3.4196 C   0  0  1  0  0  0  0  0  0  0  0  0
   10.0844    1.0970    1.8815 C   0  0  0  0  0  0  0  0  0  0  0  0
    8.9248   -0.7306    2.8994 C   0  0  0  0  0  0  0  0  0  0  0  0
    8.9779    0.8455    4.7601 C   0  0  0  0  0  0  0  0  0  0  0  0
   10.0518   -0.4371    1.9225 C   0  0  0  0  0  0  0  0  0  0  0  0
    8.5983   -1.8598    3.2408 O   0  0  0  0  0  0  0  0  0  0  0  0
  1  2  1  0
  2  3  4  0
  2  4  4  0
  3  5  1  0
  3  6  4  0
  4  7  4  0
  6  8  4  0
  7  9  1  0
  8 10  1  0
  9 11  1  0
  9 12  1  6
 10 13  1  0
 11 14  1  0
 12 15  1  0
 14 16  1  0
 14 17  1  1
 16 18  1  0
 16 19  1  1
 17 20  1  0
 18 21  2  0
  7  8  4  0
 11 13  1  1
 15 16  1  0
 18 20  1  0
M  END
