
     RDKit          3D

 28 32  0  0  0  0  0  0  0  0999 V2000
   10.2781    0.1648    0.7033 O   0  0  0  0  0  0  0  0  0  0  0  0
    9.4370    0.0116    1.5865 C   0  0  0  0  0  0  0  0  0  0  0  0
    8.6144    1.1659    2.0102 C   0  0  0  0  0  0  0  0  0  0  0  0
    9.2295   -1.3183    2.2622 C   0  0  0  0  0  0  0  0  0  0  0  0
    7.7792    1.1069    3.0664 C   0  0  0  0  0  0  0  0  0  0  0  0
    7.9005   -1.3804    3.0128 C   0  0  0  0  0  0  0  0  0  0  0  0
    6.9121    2.2488    3.3550 C   0  0  0  0  0  0  0  0  0  0  0  0
    7.6440   -0.1569    3.9349 C   0  0  2  0  0  0  0  0  0  0  0  0
    7.2977    3.6568    3.1103 C   0  0  0  0  0  0  0  0  0  0  0  0
    5.6774    2.0378    3.8400 C   0  0  0  0  0  0  0  0  0  0  0  0
    6.2680   -0.2407    4.7338 C   0  0  0  0  0  0  0  0  0  0  0  0
    8.7682   -0.1009    5.0097 C   0  0  0  0  0  0  0  0  0  0  0  0
    8.6320    4.0723    3.2374 C   0  0  0  0  0  0  0  0  0  0  0  0
    6.3167    4.5964    2.7666 C   0  0  0  0  0  0  0  0  0  0  0  0
    5.1429    0.6829    4.1892 C   0  0  0  0  0  0  0  0  0  0  0  0
    5.7408   -1.6745    5.0295 C   0  0  0  0  0  0  0  0  0  0  0  0
    8.9815    5.4071    3.0176 C   0  0  0  0  0  0  0  0  0  0  0  0
    6.6667    5.9295    2.5457 C   0  0  0  0  0  0  0  0  0  0  0  0
    4.4138   -0.0096    3.0418 C   0  0  0  0  0  0  0  0  0  0  0  0
    4.8297   -2.2919    3.9492 C   0  0  0  0  0  0  0  0  0  0  0  0
    7.9935    6.3238    2.6725 C   0  0  0  0  0  0  0  0  0  0  0  0
    3.7387   -1.3145    3.5166 C   0  0  2  0  0  0  0  0  0  0  0  0
    3.3135    0.7253    2.2829 C   0  0  0  0  0  0  0  0  0  0  0  0
    8.2887    7.6358    2.4492 O   0  0  0  0  0  0  0  0  0  0  0  0
    2.9924   -1.6455    2.2366 C   0  0  0  0  0  0  0  0  0  0  0  0
    2.6695   -1.1629    4.6159 C   0  0  0  0  0  0  0  0  0  0  0  0
    2.6903   -0.3916    1.4316 C   0  0  0  0  0  0  0  0  0  0  0  0
    2.6513   -2.7719    1.9021 O   0  0  0  0  0  0  0  0  0  0  0  0
  1  2  2  0
  2  3  1  0
  2  4  1  0
  3  5  2  0
  4  6  1  0
  5  7  1  0
  5  8  1  0
  7  9  1  0
  7 10  2  0
  8 11  1  0
  8 12  1  1
  9 13  4  0
  9 14  4  0
 15 10  1  0
 11 16  1  0
 13 17  4  0
 14 18  4  0
 15 19  1  0
 16 20  1  0
 17 21  4  0
 19 22  1  0
 19 23  1  0
 21 24  1  0
 22 25  1  0
 22 26  1  1
 23 27  1  0
 25 28  2  0
  6  8  1  0
 11 15  1  0
 18 21  4  0
 20 22  1  0
 25 27  1  0
M  END
