
     RDKit          3D

 21 24  0  0  0  0  0  0  0  0999 V2000
    4.4162    4.3293    4.2439 O   0  0  0  0  0  0  0  0  0  0  0  0
    4.8640    5.1783    3.4770 C   0  0  0  0  0  0  0  0  0  0  0  0
    3.9477    6.2430    3.0100 C   0  0  0  0  0  0  0  0  0  0  0  0
    6.3242    5.2261    3.0397 C   0  0  2  0  0  0  0  0  0  0  0  0
    4.3576    7.2335    2.2019 C   0  0  0  0  0  0  0  0  0  0  0  0
    6.4356    5.9287    1.6422 C   0  0  0  0  0  0  0  0  0  0  0  0
    6.9551    3.8300    2.9378 C   0  0  1  0  0  0  0  0  0  0  0  0
    5.7914    7.3659    1.6735 C   0  0  1  0  0  0  0  0  0  0  0  0
    3.3676    8.2345    1.6624 C   0  0  0  0  0  0  0  0  0  0  0  0
    7.8795    5.8814    1.0708 C   0  0  0  0  0  0  0  0  0  0  0  0
    8.4462    3.9180    2.5421 C   0  0  2  0  0  0  0  0  0  0  0  0
    6.9681    2.8866    4.1422 C   0  0  0  0  0  0  0  0  0  0  0  0
    5.7466    8.0224    0.2549 C   0  0  0  0  0  0  0  0  0  0  0  0
    6.5721    8.3239    2.6024 C   0  0  0  0  0  0  0  0  0  0  0  0
    3.2188    8.0656    0.1477 C   0  0  0  0  0  0  0  0  0  0  0  0
    8.5271    4.4889    1.1334 C   0  0  0  0  0  0  0  0  0  0  0  0
    8.8126    2.4537    2.6912 C   0  0  0  0  0  0  0  0  0  0  0  0
    9.3552    4.6958    3.5136 C   0  0  0  0  0  0  0  0  0  0  0  0
    7.9155    1.7618    3.6980 C   0  0  0  0  0  0  0  0  0  0  0  0
    4.5102    7.6192   -0.5477 C   0  0  0  0  0  0  0  0  0  0  0  0
    9.7312    1.9030    2.0992 O   0  0  0  0  0  0  0  0  0  0  0  0
  1  2  2  0
  2  3  1  0
  4  2  1  6
  3  5  2  0
  4  6  1  0
  4  7  1  0
  5  8  1  0
  5  9  1  0
  6 10  1  0
  7 11  1  0
  7 12  1  1
  8 13  1  0
  8 14  1  1
  9 15  1  0
 10 16  1  0
 11 17  1  0
 11 18  1  1
 12 19  1  0
 13 20  1  0
 17 21  2  0
  6  8  1  0
 11 16  1  0
 15 20  1  0
 17 19  1  0
M  END
