
     RDKit          3D

 30 34  0  0  0  0  0  0  0  0999 V2000
    3.4813    1.5125    2.0660 O   0  0  0  0  0  0  0  0  0  0  0  0
    4.3627    1.0828    2.8016 C   0  0  0  0  0  0  0  0  0  0  0  0
    4.2723   -0.2487    3.4581 C   0  0  0  0  0  0  0  0  0  0  0  0
    5.5769    1.8857    3.0528 C   0  0  0  0  0  0  0  0  0  0  0  0
    5.2757   -0.6689    4.2484 C   0  0  0  0  0  0  0  0  0  0  0  0
    3.0454   -1.0731    3.1727 C   0  0  0  0  0  0  0  0  0  0  0  0
    6.5683    1.4573    3.8525 C   0  0  0  0  0  0  0  0  0  0  0  0
    6.5380    0.1148    4.5882 C   0  0  2  0  0  0  0  0  0  0  0  0
    2.8783   -1.3554    1.6771 C   0  0  0  0  0  0  0  0  0  0  0  0
    7.8205    2.2822    4.0120 C   0  0  0  0  0  0  0  0  0  0  0  0
    7.8185   -0.6941    4.1580 C   0  0  1  0  0  0  0  0  0  0  0  0
    6.4842    0.3718    6.1108 C   0  0  0  0  0  0  0  0  0  0  0  0
    1.3996   -1.4831    1.3047 C   0  0  0  0  0  0  0  0  0  0  0  0
    9.0458    1.4778    3.5890 C   0  0  0  0  0  0  0  0  0  0  0  0
    9.1344    0.1417    4.3406 C   0  0  2  0  0  0  0  0  0  0  0  0
    7.9420   -2.1030    4.8090 C   0  0  0  0  0  0  0  0  0  0  0  0
    0.9225   -0.3027    0.4963 C   0  0  0  0  0  0  0  0  0  0  0  0
   10.3126   -0.7054    3.8527 C   0  0  2  0  0  0  0  0  0  0  0  0
    9.2287   -2.8579    4.4251 C   0  0  0  0  0  0  0  0  0  0  0  0
   -0.4415    0.0139    0.4424 C   0  0  0  0  0  0  0  0  0  0  0  0
    1.8308    0.4779   -0.2307 C   0  0  0  0  0  0  0  0  0  0  0  0
   10.4636   -1.9999    4.6766 C   0  0  1  0  0  0  0  0  0  0  0  0
   11.7182   -0.1146    3.8258 C   0  0  0  0  0  0  0  0  0  0  0  0
   -0.8871    1.0973   -0.3162 C   0  0  0  0  0  0  0  0  0  0  0  0
    1.3833    1.5615   -0.9885 C   0  0  0  0  0  0  0  0  0  0  0  0
   11.7673   -2.4925    4.0746 C   0  0  0  0  0  0  0  0  0  0  0  0
   10.7189   -1.8147    6.1838 C   0  0  0  0  0  0  0  0  0  0  0  0
   12.5955   -1.3406    3.5309 C   0  0  0  0  0  0  0  0  0  0  0  0
    0.0253    1.8716   -1.0302 C   0  0  0  0  0  0  0  0  0  0  0  0
   12.1250   -3.6625    4.0512 O   0  0  0  0  0  0  0  0  0  0  0  0
  1  2  2  0
  2  3  1  0
  2  4  1  0
  3  5  2  0
  3  6  1  0
  4  7  2  0
  5  8  1  0
  6  9  1  0
  7 10  1  0
  8 11  1  0
  8 12  1  1
  9 13  1  0
 10 14  1  0
 11 15  1  0
 11 16  1  1
 13 17  1  0
 15 18  1  0
 16 19  1  0
 17 20  4  0
 17 21  4  0
 18 22  1  0
 18 23  1  1
 20 24  4  0
 21 25  4  0
 22 26  1  0
 22 27  1  1
 23 28  1  0
 24 29  4  0
 26 30  2  0
  7  8  1  0
 15 14  1  6
 19 22  1  0
 25 29  4  0
 26 28  1  0
M  END
