
     RDKit          3D

 24 27  0  0  0  0  0  0  0  0999 V2000
    5.7222    4.5532    4.9489 O   0  0  0  0  0  0  0  0  0  0  0  0
    6.4609    4.2220    4.0231 C   0  0  0  0  0  0  0  0  0  0  0  0
    6.4504    2.8024    3.6002 C   0  0  0  0  0  0  0  0  0  0  0  0
    7.2967    5.2070    3.1856 C   0  0  2  0  0  0  0  0  0  0  0  0
    7.6263    2.0696    3.3209 C   0  0  0  0  0  0  0  0  0  0  0  0
    5.1899    2.2201    3.4747 C   0  0  0  0  0  0  0  0  0  0  0  0
    6.9013    6.6255    3.4456 N   0  0  0  0  0  0  0  0  0  0  0  0
    7.2106    4.8654    1.6835 C   0  0  0  0  0  0  0  0  0  0  0  0
    7.4368    0.7542    2.8516 C   0  0  0  0  0  0  0  0  0  0  0  0
    8.9499    2.5515    3.4988 C   0  0  0  0  0  0  0  0  0  0  0  0
    5.1317    0.9233    3.0218 C   0  0  0  0  0  0  0  0  0  0  0  0
    5.5150    6.8928    2.9687 C   0  0  0  0  0  0  0  0  0  0  0  0
    7.8063    7.4992    2.6594 C   0  0  0  0  0  0  0  0  0  0  0  0
    6.6864    6.0870    0.9050 C   0  0  1  0  0  0  0  0  0  0  0  0
    6.2219    0.2003    2.6954 N   0  0  0  0  0  0  0  0  0  0  0  0
    8.5508   -0.0100    2.5399 C   0  0  0  0  0  0  0  0  0  0  0  0
   10.0571    1.7691    3.1754 C   0  0  0  0  0  0  0  0  0  0  0  0
    5.2985    6.4554    1.4935 C   0  0  0  0  0  0  0  0  0  0  0  0
    7.6697    7.2464    1.1493 C   0  0  0  0  0  0  0  0  0  0  0  0
    9.8488    0.4840    2.6910 C   0  0  0  0  0  0  0  0  0  0  0  0
   11.3670    2.1381    3.2927 O   0  0  0  0  0  0  0  0  0  0  0  0
    4.5582    7.4064    0.5733 C   0  0  0  0  0  0  0  0  0  0  0  0
   11.6412    3.5343    3.3404 C   0  0  0  0  0  0  0  0  0  0  0  0
    3.2381    7.5666    0.4136 C   0  0  0  0  0  0  0  0  0  0  0  0
  1  2  2  0
  2  3  1  0
  4  2  1  1
  3  5  4  0
  3  6  4  0
  4  7  1  0
  4  8  1  0
  5  9  4  0
  5 10  4  0
  6 11  4  0
  7 12  1  0
  7 13  1  0
 14  8  1  1
  9 15  4  0
  9 16  4  0
 10 17  4  0
 12 18  1  0
 13 19  1  0
 16 20  4  0
 17 21  1  0
 18 22  1  0
 21 23  1  0
 22 24  2  0
 11 15  4  0
 14 18  1  0
 14 19  1  0
 17 20  4  0
M  END
