
     RDKit          3D

 23 27  0  0  0  0  0  0  0  0999 V2000
    3.3669    7.9394    1.8964 O   0  0  0  0  0  0  0  0  0  0  0  0
    3.9567    7.0395    2.4899 C   0  0  0  0  0  0  0  0  0  0  0  0
    5.4221    6.8995    2.3348 C   0  0  0  0  0  0  0  0  0  0  0  0
    3.2483    6.0893    3.4153 C   0  0  0  0  0  0  0  0  0  0  0  0
    6.1266    5.9529    2.9853 C   0  0  0  0  0  0  0  0  0  0  0  0
    3.9874    4.7566    3.4587 C   0  0  0  0  0  0  0  0  0  0  0  0
    5.4881    4.8910    3.8979 C   0  0  1  0  0  0  0  0  0  0  0  0
    7.6218    5.9540    2.8488 C   0  0  0  0  0  0  0  0  0  0  0  0
    6.2112    3.4640    3.8185 C   0  0  2  0  0  0  0  0  0  0  0  0
    5.4505    5.2864    5.4017 C   0  0  2  0  0  0  0  0  0  0  0  0
    8.1249    4.5786    2.4735 C   0  0  0  0  0  0  0  0  0  0  0  0
    7.7525    3.5107    3.5119 C   0  0  0  0  0  0  0  0  0  0  0  0
    5.5329    2.3596    2.9614 C   0  0  0  0  0  0  0  0  0  0  0  0
    4.7719    4.4424    6.3866 N   0  0  0  0  0  0  0  0  0  0  0  0
    4.2076    5.7597    6.1244 C   0  0  0  0  0  0  0  0  0  0  0  0
    8.2536    2.1522    2.9846 C   0  0  2  0  0  0  0  0  0  0  0  0
    6.1046    0.9413    3.2253 C   0  0  0  0  0  0  0  0  0  0  0  0
    7.5770    0.9462    3.6491 C   0  0  1  0  0  0  0  0  0  0  0  0
    9.7472    1.8485    3.0550 C   0  0  0  0  0  0  0  0  0  0  0  0
    8.4412   -0.1520    3.0462 C   0  0  0  0  0  0  0  0  0  0  0  0
    7.7532    0.8299    5.1734 C   0  0  0  0  0  0  0  0  0  0  0  0
    9.8114    0.3699    2.6495 C   0  0  0  0  0  0  0  0  0  0  0  0
    8.0947   -1.3192    2.9209 O   0  0  0  0  0  0  0  0  0  0  0  0
  1  2  2  0
  2  3  1  0
  2  4  1  0
  3  5  2  0
  4  6  1  0
  5  7  1  0
  5  8  1  0
  7  9  1  0
  7 10  1  0
  8 11  1  0
  9 12  1  0
  9 13  1  6
 10 14  1  0
 10 15  1  6
 12 16  1  0
 13 17  1  0
 16 18  1  0
 16 19  1  1
 18 20  1  0
 18 21  1  1
 19 22  1  0
 20 23  2  0
  7  6  1  6
 12 11  1  0
 14 15  1  0
 17 18  1  0
 20 22  1  0
M  END
