
     RDKit          3D

 21 24  0  0  0  0  0  0  0  0999 V2000
    2.4713    6.0881    5.0203 F   0  0  0  0  0  0  0  0  0  0  0  0
    3.5815    5.9230    4.2861 C   0  0  0  0  0  0  0  0  0  0  0  0
    3.9017    6.8605    3.3110 C   0  0  0  0  0  0  0  0  0  0  0  0
    4.3926    4.8150    4.4985 C   0  0  0  0  0  0  0  0  0  0  0  0
    3.1040    7.9475    3.0921 O   0  0  0  0  0  0  0  0  0  0  0  0
    5.0451    6.7065    2.5393 C   0  0  0  0  0  0  0  0  0  0  0  0
    5.5532    4.6403    3.7278 C   0  0  0  0  0  0  0  0  0  0  0  0
    5.8825    5.6018    2.7528 C   0  0  0  0  0  0  0  0  0  0  0  0
    6.4062    3.3936    3.9047 C   0  0  2  0  0  0  0  0  0  0  0  0
    7.1368    5.4241    1.9434 C   0  0  0  0  0  0  0  0  0  0  0  0
    7.9183    3.5803    3.5254 C   0  0  0  0  0  0  0  0  0  0  0  0
    5.7282    2.2256    3.1433 C   0  0  0  0  0  0  0  0  0  0  0  0
    8.2479    4.9310    2.8612 C   0  0  0  0  0  0  0  0  0  0  0  0
    8.4076    2.3931    2.6802 C   0  0  2  0  0  0  0  0  0  0  0  0
    6.4668    0.8804    3.2261 C   0  0  0  0  0  0  0  0  0  0  0  0
    7.9962    1.0339    3.2819 C   0  0  1  0  0  0  0  0  0  0  0  0
    9.9167    2.2527    2.4585 C   0  0  0  0  0  0  0  0  0  0  0  0
    8.7593    0.0909    2.3298 C   0  0  1  0  0  0  0  0  0  0  0  0
    8.4625    0.8264    4.7456 C   0  0  0  0  0  0  0  0  0  0  0  0
   10.1299    0.7620    2.1527 C   0  0  0  0  0  0  0  0  0  0  0  0
    8.8787   -1.2247    2.8342 O   0  0  0  0  0  0  0  0  0  0  0  0
  1  2  1  0
  2  3  4  0
  2  4  4  0
  3  5  1  0
  3  6  4  0
  4  7  4  0
  6  8  4  0
  7  9  1  0
  8 10  1  0
  9 11  1  0
  9 12  1  6
 10 13  1  0
 11 14  1  0
 12 15  1  0
 14 16  1  0
 14 17  1  1
 16 18  1  0
 16 19  1  1
 17 20  1  0
 18 21  1  1
  7  8  4  0
 11 13  1  0
 15 16  1  0
 18 20  1  0
M  END
