
     RDKit          3D

 22 25  0  0  0  0  0  0  0  0999 V2000
    5.7421    2.0563    4.2442 O   0  0  0  0  0  0  0  0  0  0  0  0
    6.3466    2.9816    3.7012 C   0  0  0  0  0  0  0  0  0  0  0  0
    5.5371    4.0619    3.1061 C   0  0  0  0  0  0  0  0  0  0  0  0
    7.8738    3.0581    3.6795 C   0  0  2  0  0  0  0  0  0  0  0  0
    6.0764    5.1913    2.6272 C   0  0  0  0  0  0  0  0  0  0  0  0
    8.4035    4.0734    2.6128 C   0  0  2  0  0  0  0  0  0  0  0  0
    8.3916    1.6322    3.3979 C   0  0  1  0  0  0  0  0  0  0  0  0
    7.5812    5.4288    2.5771 C   0  0  1  0  0  0  0  0  0  0  0  0
    5.1627    6.3381    2.2393 C   0  0  0  0  0  0  0  0  0  0  0  0
    8.6334    3.3398    1.2629 C   0  0  0  0  0  0  0  0  0  0  0  0
    9.7855    1.5859    2.7555 C   0  0  2  0  0  0  0  0  0  0  0  0
    8.4798    0.6391    4.5565 C   0  0  0  0  0  0  0  0  0  0  0  0
    7.9360    6.2365    1.2920 C   0  0  0  0  0  0  0  0  0  0  0  0
    7.9464    6.2663    3.8503 C   0  0  0  0  0  0  0  0  0  0  0  0
    5.6103    7.0832    0.9880 C   0  0  0  0  0  0  0  0  0  0  0  0
    9.6805    2.2004    1.3578 C   0  0  0  0  0  0  0  0  0  0  0  0
    9.9962    0.0791    2.7996 C   0  0  0  0  0  0  0  0  0  0  0  0
   10.9350    2.1866    3.5863 C   0  0  0  0  0  0  0  0  0  0  0  0
    9.1951   -0.5610    3.9198 C   0  0  0  0  0  0  0  0  0  0  0  0
    7.0780    7.4819    1.0759 C   0  0  0  0  0  0  0  0  0  0  0  0
    9.2918    6.7309    3.8278 O   0  0  0  0  0  0  0  0  0  0  0  0
   10.7398   -0.5412    2.0508 O   0  0  0  0  0  0  0  0  0  0  0  0
  1  2  2  0
  2  3  1  0
  4  2  1  6
  3  5  2  0
  4  6  1  0
  4  7  1  0
  5  8  1  0
  5  9  1  0
  6 10  1  6
  7 11  1  0
  7 12  1  1
  8 13  1  0
  8 14  1  1
  9 15  1  0
 10 16  1  0
 11 17  1  0
 11 18  1  1
 12 19  1  0
 13 20  1  0
 14 21  1  0
 17 22  2  0
  6  8  1  0
 11 16  1  0
 15 20  1  0
 17 19  1  0
M  END
