
     RDKit          3D

 14 15  0  0  0  0  0  0  0  0999 V2000
    8.4100    2.2545    3.6338 O   0  0  0  0  0  0  0  0  0  0  0  0
    7.9411    3.3987    3.0439 C   0  0  0  0  0  0  0  0  0  0  0  0
    7.4461    1.2688    3.9805 C   0  0  0  0  0  0  0  0  0  0  0  0
    6.7934    4.1038    3.4267 C   0  0  0  0  0  0  0  0  0  0  0  0
    8.7146    3.8559    1.9761 C   0  0  0  0  0  0  0  0  0  0  0  0
    6.4243    5.2751    2.7259 C   0  0  0  0  0  0  0  0  0  0  0  0
    8.3744    5.0107    1.2643 C   0  0  0  0  0  0  0  0  0  0  0  0
    7.2238    5.6967    1.6638 C   0  0  0  0  0  0  0  0  0  0  0  0
    5.3467    6.2130    2.8496 C   0  0  0  0  0  0  0  0  0  0  0  0
    6.6562    6.8424    1.1582 N   0  0  0  0  0  0  0  0  0  0  0  0
    5.5279    7.1610    1.8615 C   0  0  0  0  0  0  0  0  0  0  0  0
    4.2336    6.1836    3.8543 C   0  0  0  0  0  0  0  0  0  0  0  0
    2.9667    6.8754    3.3521 C   0  0  0  0  0  0  0  0  0  0  0  0
    3.0418    8.2816    3.5746 O   0  0  0  0  0  0  0  0  0  0  0  0
  1  2  1  0
  1  3  1  0
  2  4  4  0
  2  5  4  0
  4  6  4  0
  5  7  4  0
  6  8  4  0
  6  9  4  0
  8 10  4  0
  9 11  4  0
  9 12  1  0
 12 13  1  0
 13 14  1  0
  7  8  4  0
 10 11  4  0
M  END
