
     RDKit          3D

 23 27  0  0  0  0  0  0  0  0999 V2000
    3.2287    8.2364    1.5617 O   0  0  0  0  0  0  0  0  0  0  0  0
    3.8839    7.3463    2.0914 C   0  0  0  0  0  0  0  0  0  0  0  0
    5.3374    7.2457    1.8453 C   0  0  1  0  0  0  0  0  0  0  0  0
    3.2826    6.3505    3.0477 C   0  0  0  0  0  0  0  0  0  0  0  0
    6.1494    7.4715    3.0050 O   0  0  0  0  0  0  0  0  0  0  0  0
    6.1794    6.1402    2.4628 C   0  0  1  0  0  0  0  0  0  0  0  0
    3.9943    5.0026    2.9771 C   0  0  0  0  0  0  0  0  0  0  0  0
    5.5065    5.0649    3.3450 C   0  0  1  0  0  0  0  0  0  0  0  0
    7.4837    5.7959    1.7900 C   0  0  0  0  0  0  0  0  0  0  0  0
    6.1765    3.6816    2.9737 C   0  0  1  0  0  0  0  0  0  0  0  0
    5.6926    5.4254    4.8501 C   0  0  0  0  0  0  0  0  0  0  0  0
    8.3895    4.9741    2.6992 C   0  0  0  0  0  0  0  0  0  0  0  0
    7.7176    3.7010    3.2514 C   0  0  2  0  0  0  0  0  0  0  0  0
    5.5021    2.4007    3.5297 C   0  0  0  0  0  0  0  0  0  0  0  0
    4.8392    4.6782    5.7045 O   0  0  0  0  0  0  0  0  0  0  0  0
    8.3072    2.3993    2.6936 C   0  0  2  0  0  0  0  0  0  0  0  0
    6.2101    1.1083    3.0758 C   0  0  0  0  0  0  0  0  0  0  0  0
    7.7012    1.1604    3.3958 C   0  0  1  0  0  0  0  0  0  0  0  0
    9.8113    2.1451    2.7438 C   0  0  0  0  0  0  0  0  0  0  0  0
    8.5723    0.0983    2.7511 C   0  0  0  0  0  0  0  0  0  0  0  0
    7.9444    1.0566    4.9142 C   0  0  0  0  0  0  0  0  0  0  0  0
    9.9215    0.6651    2.3443 C   0  0  0  0  0  0  0  0  0  0  0  0
    8.2483   -1.0715    2.5966 O   0  0  0  0  0  0  0  0  0  0  0  0
  1  2  2  0
  2  3  1  0
  2  4  1  0
  3  5  1  1
  3  6  1  0
  4  7  1  0
  6  8  1  0
  6  9  1  6
  8 10  1  0
  8 11  1  1
  9 12  1  0
 10 13  1  0
 10 14  1  1
 11 15  1  0
 13 16  1  0
 14 17  1  0
 16 18  1  0
 16 19  1  1
 18 20  1  0
 18 21  1  1
 19 22  1  0
 20 23  2  0
  6  5  1  0
  7  8  1  0
 13 12  1  6
 17 18  1  0
 20 22  1  0
M  END
