
     RDKit          3D

 27 31  0  0  0  0  0  0  0  0999 V2000
   11.6229   -1.4727    2.2487 O   0  0  0  0  0  0  0  0  0  0  0  0
   10.5003   -1.2311    2.6718 C   0  0  0  0  0  0  0  0  0  0  0  0
   10.0055    0.1455    3.0761 C   0  0  2  0  0  0  0  0  0  0  0  0
    9.4307   -2.2883    2.8878 C   0  0  0  0  0  0  0  0  0  0  0  0
    8.4966   -0.0872    2.8518 C   0  0  1  0  0  0  0  0  0  0  0  0
   10.4295    1.3136    2.1936 C   0  0  0  0  0  0  0  0  0  0  0  0
   10.4509    0.3599    4.5350 C   0  0  0  0  0  0  0  0  0  0  0  0
    8.2452   -1.4757    3.4293 C   0  0  0  0  0  0  0  0  0  0  0  0
    7.6768    1.1048    3.3436 C   0  0  1  0  0  0  0  0  0  0  0  0
    9.6082    2.5790    2.5086 C   0  0  0  0  0  0  0  0  0  0  0  0
    8.0690    2.3562    2.5085 C   0  0  2  0  0  0  0  0  0  0  0  0
    6.1689    0.8728    3.2285 C   0  0  0  0  0  0  0  0  0  0  0  0
    7.2373    3.5709    2.9160 C   0  0  0  0  0  0  0  0  0  0  0  0
    5.3575    2.0476    3.8057 C   0  0  2  0  0  0  0  0  0  0  0  0
    5.9515    3.4141    3.4860 C   0  0  0  0  0  0  0  0  0  0  0  0
    7.6934    4.8750    2.6419 C   0  0  0  0  0  0  0  0  0  0  0  0
    4.9955    1.8441    5.3062 C   0  0  0  0  0  0  0  0  0  0  0  0
    5.1701    4.5582    3.7562 C   0  0  0  0  0  0  0  0  0  0  0  0
    6.9171    5.9961    2.9383 C   0  0  0  0  0  0  0  0  0  0  0  0
    4.1039    0.6750    5.6535 C   0  0  0  0  0  0  0  0  0  0  0  0
    5.6605    5.8305    3.4900 C   0  0  0  0  0  0  0  0  0  0  0  0
    3.3841    0.6504    6.8556 C   0  0  0  0  0  0  0  0  0  0  0  0
    3.9856   -0.4115    4.7735 C   0  0  0  0  0  0  0  0  0  0  0  0
    4.9265    6.9483    3.7527 O   0  0  0  0  0  0  0  0  0  0  0  0
    2.5787   -0.4433    7.1782 C   0  0  0  0  0  0  0  0  0  0  0  0
    3.1787   -1.5036    5.0970 C   0  0  0  0  0  0  0  0  0  0  0  0
    2.4774   -1.5203    6.3004 C   0  0  0  0  0  0  0  0  0  0  0  0
  1  2  2  0
  2  3  1  0
  2  4  1  0
  3  5  1  0
  3  6  1  0
  3  7  1  1
  4  8  1  0
  5  9  1  0
  6 10  1  0
  9 11  1  0
  9 12  1  6
 11 13  1  0
 12 14  1  0
 13 15  4  0
 13 16  4  0
 14 17  1  1
 15 18  4  0
 16 19  4  0
 17 20  1  0
 18 21  4  0
 20 22  4  0
 20 23  4  0
 21 24  1  0
 22 25  4  0
 23 26  4  0
 25 27  4  0
  5  8  1  1
 11 10  1  1
 14 15  1  0
 19 21  4  0
 26 27  4  0
M  END
