
     RDKit          3D

 24 27  0  0  0  0  0  0  0  0999 V2000
    9.1209   -1.0954    2.0684 O   0  0  0  0  0  0  0  0  0  0  0  0
    8.5464   -0.3010    2.8008 C   0  0  0  0  0  0  0  0  0  0  0  0
    8.8565    1.1831    2.8783 C   0  0  2  0  0  0  0  0  0  0  0  0
    7.4479   -0.6883    3.7765 C   0  0  0  0  0  0  0  0  0  0  0  0
    7.4837    1.6704    3.3849 C   0  0  1  0  0  0  0  0  0  0  0  0
    9.1446    1.8904    1.5589 C   0  0  0  0  0  0  0  0  0  0  0  0
   10.0325    1.3346    3.8608 C   0  0  0  0  0  0  0  0  0  0  0  0
    7.0934    0.6476    4.4464 C   0  0  0  0  0  0  0  0  0  0  0  0
    7.5082    3.1615    3.7302 C   0  0  1  0  0  0  0  0  0  0  0  0
    9.1273    3.4216    1.7320 C   0  0  0  0  0  0  0  0  0  0  0  0
    7.8433    3.9626    2.4200 C   0  0  2  0  0  0  0  0  0  0  0  0
    6.1823    3.6280    4.3498 C   0  0  0  0  0  0  0  0  0  0  0  0
    7.8350    5.5172    2.6697 C   0  0  2  0  0  0  0  0  0  0  0  0
    6.1496    5.1439    4.5922 C   0  0  1  0  0  0  0  0  0  0  0  0
    6.4509    5.8430    3.2710 C   0  0  0  0  0  0  0  0  0  0  0  0
    8.0769    6.3391    1.3646 C   0  0  0  0  0  0  0  0  0  0  0  0
    8.9658    5.9476    3.6380 C   0  0  0  0  0  0  0  0  0  0  0  0
    4.8433    5.5115    5.0726 O   0  0  0  0  0  0  0  0  0  0  0  0
    5.5423    6.5994    2.6199 C   0  0  0  0  0  0  0  0  0  0  0  0
    6.8429    6.4395    0.4796 C   0  0  0  0  0  0  0  0  0  0  0  0
    3.8109    4.7535    4.6179 C   0  0  0  0  0  0  0  0  0  0  0  0
    5.7210    7.1418    1.2349 C   0  0  0  0  0  0  0  0  0  0  0  0
    3.4867    4.6151    3.4471 O   0  0  0  0  0  0  0  0  0  0  0  0
    3.1079    4.1063    5.7715 C   0  0  0  0  0  0  0  0  0  0  0  0
  1  2  2  0
  2  3  1  0
  2  4  1  0
  3  5  1  0
  3  6  1  0
  3  7  1  1
  4  8  1  0
  5  9  1  0
  6 10  1  0
  9 11  1  0
  9 12  1  6
 11 13  1  0
 12 14  1  0
 13 15  1  0
 13 16  1  0
 13 17  1  1
 14 18  1  6
 15 19  2  0
 16 20  1  0
 18 21  1  0
 19 22  1  0
 21 23  2  0
 21 24  1  0
  5  8  1  1
 11 10  1  1
 14 15  1  0
 20 22  1  0
M  END
