
     RDKit          3D

 24 28  0  0  0  0  0  0  0  0999 V2000
    3.3927    7.8961    1.9251 O   0  0  0  0  0  0  0  0  0  0  0  0
    3.9198    6.8687    2.3457 C   0  0  0  0  0  0  0  0  0  0  0  0
    5.3223    6.5700    1.9678 C   0  0  0  0  0  0  0  0  0  0  0  0
    3.1781    5.8915    3.2274 C   0  0  0  0  0  0  0  0  0  0  0  0
    6.0320    5.5947    2.5666 C   0  0  0  0  0  0  0  0  0  0  0  0
    3.9495    4.5818    3.4104 C   0  0  0  0  0  0  0  0  0  0  0  0
    5.4757    4.7713    3.7275 C   0  0  1  0  0  0  0  0  0  0  0  0
    7.3819    5.2349    2.0058 C   0  0  0  0  0  0  0  0  0  0  0  0
    6.2035    3.3629    3.8554 C   0  0  2  0  0  0  0  0  0  0  0  0
    5.5255    5.5483    5.0982 C   0  0  0  0  0  0  0  0  0  0  0  0
    8.3310    4.6730    3.0464 C   0  0  0  0  0  0  0  0  0  0  0  0
    7.7821    3.4218    3.7546 C   0  0  2  0  0  0  0  0  0  0  0  0
    5.6323    2.2529    2.9189 C   0  0  0  0  0  0  0  0  0  0  0  0
    4.9651    4.8861    6.3168 C   0  0  0  0  0  0  0  0  0  0  0  0
    8.3395    2.1490    3.0887 C   0  0  2  0  0  0  0  0  0  0  0  0
    6.2263    0.8448    3.1357 C   0  0  0  0  0  0  0  0  0  0  0  0
    4.3397    3.6214    6.0295 O   0  0  0  0  0  0  0  0  0  0  0  0
    3.4820    4.6673    6.4957 C   0  0  0  0  0  0  0  0  0  0  0  0
    7.6712    0.8720    3.6247 C   0  0  1  0  0  0  0  0  0  0  0  0
    9.8379    1.8636    3.2037 C   0  0  0  0  0  0  0  0  0  0  0  0
    8.5948   -0.1599    2.9969 C   0  0  0  0  0  0  0  0  0  0  0  0
    7.7545    0.6606    5.1468 C   0  0  0  0  0  0  0  0  0  0  0  0
    9.9594    0.4242    2.6907 C   0  0  0  0  0  0  0  0  0  0  0  0
    8.2915   -1.3265    2.7835 O   0  0  0  0  0  0  0  0  0  0  0  0
  1  2  2  0
  2  3  1  0
  2  4  1  0
  3  5  2  0
  4  6  1  0
  5  7  1  0
  5  8  1  0
  7  9  1  0
  7 10  1  1
  8 11  1  0
  9 12  1  0
  9 13  1  6
 14 10  1  0
 12 15  1  0
 13 16  1  0
 14 17  1  0
 14 18  1  0
 15 19  1  0
 15 20  1  1
 19 21  1  0
 19 22  1  1
 20 23  1  0
 21 24  2  0
  6  7  1  0
 12 11  1  6
 16 19  1  0
 17 18  1  0
 21 23  1  0
M  END
