
     RDKit          3D

 20 22  0  0  0  0  0  0  0  0999 V2000
    8.3353    5.4191    1.0192 O   0  0  0  0  0  0  0  0  0  0  0  0
    7.5679    5.0897    1.9213 C   0  0  0  0  0  0  0  0  0  0  0  0
    6.4589    5.9820    2.3302 C   0  0  0  0  0  0  0  0  0  0  0  0
    7.7094    3.8165    2.6292 C   0  0  0  0  0  0  0  0  0  0  0  0
    6.3447    7.1885    1.6646 O   0  0  0  0  0  0  0  0  0  0  0  0
    5.6456    5.5811    3.3251 C   0  0  0  0  0  0  0  0  0  0  0  0
    6.8022    3.5263    3.6436 C   0  0  0  0  0  0  0  0  0  0  0  0
    8.7220    2.9056    2.3107 C   0  0  0  0  0  0  0  0  0  0  0  0
    5.7895    4.3770    4.0055 O   0  0  0  0  0  0  0  0  0  0  0  0
    4.5149    6.3918    3.8261 C   0  0  0  0  0  0  0  0  0  0  0  0
    6.9027    2.3245    4.3437 C   0  0  0  0  0  0  0  0  0  0  0  0
    9.6458    3.1302    1.3260 O   0  0  0  0  0  0  0  0  0  0  0  0
    8.8273    1.7034    3.0062 C   0  0  0  0  0  0  0  0  0  0  0  0
    4.0237    7.4953    3.1131 C   0  0  0  0  0  0  0  0  0  0  0  0
    3.8781    6.0349    5.0253 C   0  0  0  0  0  0  0  0  0  0  0  0
    7.9137    1.4238    4.0191 C   0  0  0  0  0  0  0  0  0  0  0  0
    2.9373    8.2316    3.5937 C   0  0  0  0  0  0  0  0  0  0  0  0
    2.7916    6.7708    5.5059 C   0  0  0  0  0  0  0  0  0  0  0  0
    7.9763    0.2610    4.7282 O   0  0  0  0  0  0  0  0  0  0  0  0
    2.3228    7.8697    4.7901 C   0  0  0  0  0  0  0  0  0  0  0  0
  1  2  2  0
  2  3  4  0
  2  4  4  0
  3  5  1  0
  3  6  4  0
  4  7  4  0
  4  8  4  0
  6  9  4  0
  6 10  1  0
  7 11  4  0
  8 12  1  0
  8 13  4  0
 10 14  4  0
 10 15  4  0
 11 16  4  0
 14 17  4  0
 15 18  4  0
 16 19  1  0
 17 20  4  0
  7  9  4  0
 13 16  4  0
 18 20  4  0
M  END
