
     RDKit          3D

 23 26  0  0  0  0  0  0  0  0999 V2000
    3.4744    8.3272    1.7654 O   0  0  0  0  0  0  0  0  0  0  0  0
    3.9962    7.3717    2.3413 C   0  0  0  0  0  0  0  0  0  0  0  0
    5.4848    7.2720    2.3402 C   0  0  0  0  0  0  0  0  0  0  0  0
    3.2120    6.3593    3.1250 C   0  0  0  0  0  0  0  0  0  0  0  0
    6.1680    8.3224    1.7560 O   0  0  0  0  0  0  0  0  0  0  0  0
    6.1192    6.2416    2.9302 C   0  0  0  0  0  0  0  0  0  0  0  0
    3.9072    5.0082    3.0801 C   0  0  0  0  0  0  0  0  0  0  0  0
    5.3912    5.0436    3.5571 C   0  0  1  0  0  0  0  0  0  0  0  0
    7.6256    6.2260    3.0441 C   0  0  0  0  0  0  0  0  0  0  0  0
    6.0834    3.6970    3.1015 C   0  0  0  0  0  0  0  0  0  0  0  0
    5.4172    5.2155    5.0933 C   0  0  0  0  0  0  0  0  0  0  0  0
    8.2246    4.9194    2.5438 C   0  0  0  0  0  0  0  0  0  0  0  0
    7.6310    3.6999    3.2697 C   0  0  2  0  0  0  0  0  0  0  0  0
    5.4688    2.4444    3.7587 C   0  0  0  0  0  0  0  0  0  0  0  0
    8.2469    2.3673    2.7468 C   0  0  2  0  0  0  0  0  0  0  0  0
    6.1041    1.1509    3.2535 C   0  0  0  0  0  0  0  0  0  0  0  0
    7.6343    1.1164    3.4346 C   0  0  1  0  0  0  0  0  0  0  0  0
    9.7897    2.3507    2.8012 C   0  0  0  0  0  0  0  0  0  0  0  0
    8.1745   -0.1463    2.7410 C   0  0  0  0  0  0  0  0  0  0  0  0
    7.9890    1.0017    4.9296 C   0  0  0  0  0  0  0  0  0  0  0  0
   10.4021    0.9627    2.5895 C   0  0  0  0  0  0  0  0  0  0  0  0
    7.5982   -1.2322    2.8244 O   0  0  0  0  0  0  0  0  0  0  0  0
    9.4440   -0.0115    1.9254 C   0  0  0  0  0  0  0  0  0  0  0  0
  1  2  2  0
  2  3  1  0
  2  4  1  0
  3  5  1  0
  3  6  2  0
  4  7  1  0
  6  8  1  0
  6  9  1  0
  8 10  1  0
  8 11  1  1
  9 12  1  0
 10 13  1  0
 10 14  1  0
 13 15  1  0
 14 16  1  0
 15 17  1  0
 15 18  1  1
 17 19  1  0
 17 20  1  1
 18 21  1  0
 19 22  2  0
 19 23  1  0
  7  8  1  0
 13 12  1  6
 16 17  1  0
 21 23  1  0
M  END
