
     RDKit          3D

 21 23  0  0  0  0  0  0  0  0999 V2000
    8.9522   -0.8096    3.1961 Cl  0  0  0  0  0  0  0  0  0  0  0  0
    9.0902    0.9041    3.1148 C   0  0  0  0  0  0  0  0  0  0  0  0
    7.9408    1.6946    3.1636 C   0  0  0  0  0  0  0  0  0  0  0  0
   10.3439    1.4869    2.9960 C   0  0  0  0  0  0  0  0  0  0  0  0
    8.0181    3.1000    3.1036 C   0  0  0  0  0  0  0  0  0  0  0  0
   10.4429    2.8743    2.9101 C   0  0  0  0  0  0  0  0  0  0  0  0
    6.8308    3.8830    3.1386 N   0  0  0  0  0  0  0  0  0  0  0  0
    9.2926    3.6809    2.9511 C   0  0  0  0  0  0  0  0  0  0  0  0
    6.7528    5.2300    2.6823 C   0  0  0  0  0  0  0  0  0  0  0  0
    5.9324    3.5851    4.2893 C   0  0  0  0  0  0  0  0  0  0  0  0
    9.5435    5.4417    2.8518 S   0  0  0  0  0  0  0  0  0  0  0  0
    7.8996    6.0215    2.4876 C   0  0  0  0  0  0  0  0  0  0  0  0
    5.5051    5.7978    2.3549 C   0  0  0  0  0  0  0  0  0  0  0  0
    4.5045    3.2591    3.8257 C   0  0  0  0  0  0  0  0  0  0  0  0
    7.7790    7.3442    2.0272 C   0  0  0  0  0  0  0  0  0  0  0  0
    5.3934    7.1118    1.8922 C   0  0  0  0  0  0  0  0  0  0  0  0
    3.6232    4.5105    3.7461 C   0  0  0  0  0  0  0  0  0  0  0  0
    6.5322    7.8895    1.7336 C   0  0  0  0  0  0  0  0  0  0  0  0
    3.2867    5.1011    5.0530 N   0  0  0  0  0  0  0  0  0  0  0  0
    3.1725    4.0434    6.0632 C   0  0  0  0  0  0  0  0  0  0  0  0
    4.2829    6.0845    5.4846 C   0  0  0  0  0  0  0  0  0  0  0  0
  1  2  1  0
  2  3  4  0
  2  4  4  0
  3  5  4  0
  4  6  4  0
  5  7  1  0
  5  8  4  0
  7  9  1  0
  7 10  1  0
  8 11  1  0
  9 12  4  0
  9 13  4  0
 10 14  1  0
 12 15  4  0
 13 16  4  0
 14 17  1  0
 15 18  4  0
 17 19  1  0
 19 20  1  0
 19 21  1  0
  6  8  4  0
 11 12  1  0
 16 18  4  0
M  END
