
     RDKit          3D

 21 24  0  0  0  0  0  0  0  0999 V2000
    7.3885   -0.5380    1.8955 O   0  0  0  0  0  0  0  0  0  0  0  0
    8.0320    0.4759    2.1310 C   0  0  0  0  0  0  0  0  0  0  0  0
    7.7399    1.4421    3.2652 C   0  0  1  0  0  0  0  0  0  0  0  0
    9.2600    0.9052    1.3437 C   0  0  0  0  0  0  0  0  0  0  0  0
    8.3831    2.7016    2.6520 C   0  0  0  0  0  0  0  0  0  0  0  0
    6.2731    1.7620    3.5384 C   0  0  0  0  0  0  0  0  0  0  0  0
    8.4366    0.8665    4.5128 C   0  0  0  0  0  0  0  0  0  0  0  0
    9.6920    2.1981    2.0541 C   0  0  0  0  0  0  0  0  0  0  0  0
    8.3919    3.8810    3.6360 C   0  0  0  0  0  0  0  0  0  0  0  0
    6.1509    2.9665    4.4887 C   0  0  0  0  0  0  0  0  0  0  0  0
    6.9214    4.2410    4.0308 C   0  0  2  0  0  0  0  0  0  0  0  0
    9.1067    5.1227    3.0995 C   0  0  0  0  0  0  0  0  0  0  0  0
    6.2111    5.0787    2.9614 C   0  0  0  0  0  0  0  0  0  0  0  0
    8.4386    5.6726    1.8473 C   0  0  0  0  0  0  0  0  0  0  0  0
    6.9381    5.7598    1.9644 C   0  0  0  0  0  0  0  0  0  0  0  0
    4.8147    5.2689    3.0046 C   0  0  0  0  0  0  0  0  0  0  0  0
    6.2570    6.5291    1.0067 C   0  0  0  0  0  0  0  0  0  0  0  0
    4.1305    6.0480    2.0541 C   0  0  0  0  0  0  0  0  0  0  0  0
    4.8741    6.6653    1.0504 C   0  0  0  0  0  0  0  0  0  0  0  0
    2.6397    6.1921    2.1538 C   0  0  0  0  0  0  0  0  0  0  0  0
    4.3134    7.4363    0.0729 O   0  0  0  0  0  0  0  0  0  0  0  0
  1  2  2  0
  2  3  1  0
  2  4  1  0
  3  5  1  0
  3  6  1  0
  3  7  1  1
  4  8  1  0
  5  9  1  0
  6 10  1  0
  9 11  1  0
  9 12  1  0
 11 13  1  0
 12 14  1  0
 13 15  4  0
 13 16  4  0
 15 17  4  0
 16 18  4  0
 17 19  4  0
 18 20  1  0
 19 21  1  0
  5  8  1  0
 11 10  1  6
 14 15  1  0
 18 19  4  0
M  END
