
     RDKit          3D

 23 27  0  0  0  0  0  0  0  0999 V2000
    4.1009    3.4753    3.2757 F   0  0  0  0  0  0  0  0  0  0  0  0
    4.4452    4.1860    4.4013 C   0  0  0  0  0  0  0  0  0  0  0  0
    3.4102    4.0468    5.2986 F   0  0  0  0  0  0  0  0  0  0  0  0
    5.1633    5.4866    4.2923 C   0  0  1  0  0  0  0  0  0  0  0  0
    5.8438    4.2754    4.8988 C   0  0  2  0  0  0  0  0  0  0  0  0
    5.5759    5.9267    2.9522 C   0  0  0  0  0  0  0  0  0  0  0  0
    7.0758    3.7399    4.2260 C   0  0  2  0  0  0  0  0  0  0  0  0
    4.6623    6.2529    2.0138 C   0  0  0  0  0  0  0  0  0  0  0  0
    7.0789    5.9102    2.6417 C   0  0  1  0  0  0  0  0  0  0  0  0
    7.8993    4.8894    3.5571 C   0  0  2  0  0  0  0  0  0  0  0  0
    6.9101    2.5707    3.2629 C   0  0  1  0  0  0  0  0  0  0  0  0
    4.9573    6.5790    0.5830 C   0  0  0  0  0  0  0  0  0  0  0  0
    7.2552    5.6585    1.1148 C   0  0  0  0  0  0  0  0  0  0  0  0
    7.6234    7.3293    2.9747 C   0  0  0  0  0  0  0  0  0  0  0  0
    9.2116    4.3534    2.9164 C   0  0  0  0  0  0  0  0  0  0  0  0
    8.2927    1.9984    2.8479 C   0  0  2  0  0  0  0  0  0  0  0  0
    6.1407    1.3209    3.6916 C   0  0  0  0  0  0  0  0  0  0  0  0
    6.4411    6.6165    0.2418 C   0  0  0  0  0  0  0  0  0  0  0  0
    9.0661    3.0667    2.0816 C   0  0  0  0  0  0  0  0  0  0  0  0
    7.7992    0.8048    2.0512 C   0  0  0  0  0  0  0  0  0  0  0  0
    9.1640    1.4173    3.9832 C   0  0  0  0  0  0  0  0  0  0  0  0
    6.4487    0.3292    2.5578 C   0  0  0  0  0  0  0  0  0  0  0  0
    8.4178    0.2700    1.1410 O   0  0  0  0  0  0  0  0  0  0  0  0
  1  2  1  0
  2  3  1  0
  4  2  1  6
  5  2  1  6
  4  6  1  0
  7  5  1  6
  6  8  2  0
  6  9  1  0
  7 10  1  0
  7 11  1  0
  8 12  1  0
  9 13  1  0
  9 14  1  6
 10 15  1  6
 11 16  1  0
 11 17  1  1
 12 18  1  0
 15 19  1  0
 16 20  1  0
 16 21  1  1
 17 22  1  0
 20 23  2  0
  4  5  1  0
  9 10  1  0
 13 18  1  0
 16 19  1  0
 20 22  1  0
M  END
