
     RDKit          3D

 25 27  0  0  0  0  0  0  0  0999 V2000
   11.5144   -1.3075    3.0801 Br  0  0  0  0  0  0  0  0  0  0  0  0
    9.9762   -0.2106    3.1295 C   0  0  0  0  0  0  0  0  0  0  0  0
    9.9459    0.9716    2.3948 C   0  0  0  0  0  0  0  0  0  0  0  0
    8.8799   -0.5902    3.8989 C   0  0  0  0  0  0  0  0  0  0  0  0
    8.8086    1.7818    2.4312 C   0  0  0  0  0  0  0  0  0  0  0  0
    7.7442    0.2222    3.9361 C   0  0  0  0  0  0  0  0  0  0  0  0
    7.6936    1.4217    3.2060 C   0  0  0  0  0  0  0  0  0  0  0  0
    6.4703    2.3288    3.2388 C   0  0  1  0  0  0  0  0  0  0  0  0
    5.2590    1.5659    3.0955 O   0  0  0  0  0  0  0  0  0  0  0  0
    6.3278    3.1697    4.5441 C   0  0  0  0  0  0  0  0  0  0  0  0
    5.3685    0.5341    2.1201 C   0  0  0  0  0  0  0  0  0  0  0  0
    5.1733    2.6741    5.4092 C   0  0  0  0  0  0  0  0  0  0  0  0
    6.3655    4.6867    4.2625 C   0  0  0  0  0  0  0  0  0  0  0  0
    4.1907    0.4715    1.3231 O   0  0  0  0  0  0  0  0  0  0  0  0
    4.2782    3.6133    5.9518 C   0  0  0  0  0  0  0  0  0  0  0  0
    4.9801    1.3194    5.7147 C   0  0  0  0  0  0  0  0  0  0  0  0
    5.0714    5.2431    3.9210 N   0  0  0  0  0  0  0  0  0  0  0  0
    4.4558   -0.0139    0.0153 C   0  0  0  0  0  0  0  0  0  0  0  0
    3.2216    3.2084    6.7695 C   0  0  0  0  0  0  0  0  0  0  0  0
    3.9214    0.9163    6.5320 C   0  0  0  0  0  0  0  0  0  0  0  0
    4.3233    4.6891    2.9514 N   0  0  0  0  0  0  0  0  0  0  0  0
    4.4878    6.3736    4.4113 C   0  0  0  0  0  0  0  0  0  0  0  0
    3.0434    1.8591    7.0593 C   0  0  0  0  0  0  0  0  0  0  0  0
    3.2272    5.4255    2.8245 N   0  0  0  0  0  0  0  0  0  0  0  0
    3.3101    6.4616    3.7100 C   0  0  0  0  0  0  0  0  0  0  0  0
  1  2  1  0
  2  3  4  0
  2  4  4  0
  3  5  4  0
  4  6  4  0
  5  7  4  0
  7  8  1  0
  8  9  1  1
  8 10  1  0
  9 11  1  0
 10 12  1  0
 10 13  1  0
 11 14  1  0
 12 15  4  0
 12 16  4  0
 13 17  1  0
 14 18  1  0
 15 19  4  0
 16 20  4  0
 17 21  4  0
 17 22  4  0
 19 23  4  0
 21 24  4  0
 22 25  4  0
  6  7  4  0
 20 23  4  0
 24 25  4  0
M  END
