
     RDKit          3D

 28 32  0  0  0  0  0  0  0  0999 V2000
   10.6601    1.3961   -0.2204 O   0  0  0  0  0  0  0  0  0  0  0  0
   10.0721    1.0605    0.8053 C   0  0  0  0  0  0  0  0  0  0  0  0
    9.1287    2.0070    1.4403 C   0  0  0  0  0  0  0  0  0  0  0  0
   10.3296   -0.2613    1.4785 C   0  0  0  0  0  0  0  0  0  0  0  0
    8.4809    1.7059    2.5790 C   0  0  0  0  0  0  0  0  0  0  0  0
    9.1273   -0.7050    2.3024 C   0  0  0  0  0  0  0  0  0  0  0  0
    7.6058    2.6964    3.1768 C   0  0  0  0  0  0  0  0  0  0  0  0
    8.6276    0.3714    3.3086 C   0  0  2  0  0  0  0  0  0  0  0  0
    6.7732    2.4704    4.2140 C   0  0  0  0  0  0  0  0  0  0  0  0
    7.2180   -0.0305    3.8607 C   0  0  2  0  0  0  0  0  0  0  0  0
    9.6678    0.5207    4.4429 C   0  0  0  0  0  0  0  0  0  0  0  0
    6.5849    1.0708    4.8111 C   0  0  2  0  0  0  0  0  0  0  0  0
    6.1301    3.6893    4.8593 C   0  0  0  0  0  0  0  0  0  0  0  0
    7.1745   -1.4437    4.4957 C   0  0  0  0  0  0  0  0  0  0  0  0
    5.1396    0.5761    5.0984 C   0  0  1  0  0  0  0  0  0  0  0  0
    5.6645    4.7643    3.8988 C   0  0  0  0  0  0  0  0  0  0  0  0
    5.7677   -1.8481    4.9483 C   0  0  0  0  0  0  0  0  0  0  0  0
    5.1621   -0.7850    5.8536 C   0  0  2  0  0  0  0  0  0  0  0  0
    4.1199    1.3800    5.9041 C   0  0  0  0  0  0  0  0  0  0  0  0
    6.5679    5.6613    3.3085 C   0  0  0  0  0  0  0  0  0  0  0  0
    4.3163    4.8241    3.5147 C   0  0  0  0  0  0  0  0  0  0  0  0
    3.6777   -0.9487    6.1171 C   0  0  0  0  0  0  0  0  0  0  0  0
    5.8491   -0.7742    7.2337 C   0  0  0  0  0  0  0  0  0  0  0  0
    2.9736    0.3871    6.1463 C   0  0  0  0  0  0  0  0  0  0  0  0
    6.1260    6.6244    2.3994 C   0  0  0  0  0  0  0  0  0  0  0  0
    3.8749    5.7872    2.6052 C   0  0  0  0  0  0  0  0  0  0  0  0
    3.1165   -2.0197    6.3063 O   0  0  0  0  0  0  0  0  0  0  0  0
    4.7791    6.6905    2.0520 C   0  0  0  0  0  0  0  0  0  0  0  0
  1  2  2  0
  2  3  1  0
  2  4  1  0
  3  5  2  0
  4  6  1  0
  5  7  1  0
  5  8  1  0
  7  9  2  0
  8 10  1  0
  8 11  1  1
 12  9  1  6
  9 13  1  0
 10 14  1  1
 12 15  1  0
 13 16  1  0
 14 17  1  0
 15 18  1  0
 15 19  1  1
 16 20  4  0
 16 21  4  0
 18 22  1  0
 18 23  1  1
 19 24  1  0
 20 25  4  0
 21 26  4  0
 22 27  2  0
 25 28  4  0
  6  8  1  0
 10 12  1  0
 17 18  1  0
 22 24  1  0
 26 28  4  0
M  END
