
     RDKit          3D

 13 14  0  0  0  0  0  0  0  0999 V2000
    6.9967    4.8738    2.8183 O   0  0  0  0  0  0  0  0  0  0  0  0
    6.6112    5.8782    1.9725 C   0  0  0  0  0  0  0  0  0  0  0  0
    8.1440    4.3306    2.3202 C   0  0  0  0  0  0  0  0  0  0  0  0
    5.3891    6.5966    2.3306 C   0  0  0  0  0  0  0  0  0  0  0  0
    7.5205    5.9719    0.9355 C   0  0  0  0  0  0  0  0  0  0  0  0
    8.5051    4.9793    1.1596 C   0  0  0  0  0  0  0  0  0  0  0  0
    8.7422    3.2149    3.0935 C   0  0  0  0  0  0  0  0  0  0  0  0
    5.1265    7.8690    1.7999 C   0  0  0  0  0  0  0  0  0  0  0  0
    4.4469    6.0401    3.2097 C   0  0  0  0  0  0  0  0  0  0  0  0
   10.0436    2.8464    2.5428 N   0  0  0  0  0  0  0  0  0  0  0  0
    3.9597    8.5624    2.1372 C   0  0  0  0  0  0  0  0  0  0  0  0
    3.2800    6.7319    3.5478 C   0  0  0  0  0  0  0  0  0  0  0  0
    3.0372    7.9932    3.0111 C   0  0  0  0  0  0  0  0  0  0  0  0
  1  2  4  0
  1  3  4  0
  2  4  1  0
  2  5  4  0
  3  6  4  0
  3  7  1  0
  4  8  4  0
  4  9  4  0
  7 10  1  0
  8 11  4  0
  9 12  4  0
 11 13  4  0
  5  6  4  0
 12 13  4  0
M  END
