
     RDKit          3D

 28 32  0  0  0  0  0  0  0  0999 V2000
   10.1173    0.0378   -0.6210 O   0  0  0  0  0  0  0  0  0  0  0  0
    9.6161   -0.0123    0.4950 C   0  0  0  0  0  0  0  0  0  0  0  0
    9.0541    1.1904    1.1396 C   0  0  0  0  0  0  0  0  0  0  0  0
    9.5209   -1.2843    1.2353 C   0  0  0  0  0  0  0  0  0  0  0  0
    8.5583    1.1505    2.3881 C   0  0  0  0  0  0  0  0  0  0  0  0
    9.0485   -1.3170    2.4888 C   0  0  0  0  0  0  0  0  0  0  0  0
    7.9050    2.3246    2.9305 C   0  0  0  0  0  0  0  0  0  0  0  0
    8.5978   -0.0934    3.2812 C   0  0  2  0  0  0  0  0  0  0  0  0
    7.0631    2.3044    3.9849 C   0  0  0  0  0  0  0  0  0  0  0  0
    7.1543   -0.2604    3.8670 C   0  0  2  0  0  0  0  0  0  0  0  0
    9.6628    0.1002    4.3872 C   0  0  0  0  0  0  0  0  0  0  0  0
    6.7102    1.0060    4.7196 C   0  0  2  0  0  0  0  0  0  0  0  0
    6.6063    3.6417    4.5344 C   0  0  0  0  0  0  0  0  0  0  0  0
    6.9201   -1.5902    4.6288 C   0  0  0  0  0  0  0  0  0  0  0  0
    5.2292    0.7599    5.1133 C   0  0  1  0  0  0  0  0  0  0  0  0
    6.0179    4.6326    3.5474 C   0  0  0  0  0  0  0  0  0  0  0  0
    5.4869   -1.7330    5.1525 C   0  0  0  0  0  0  0  0  0  0  0  0
    5.0925   -0.5221    5.9843 C   0  0  2  0  0  0  0  0  0  0  0  0
    4.4005    1.7754    5.9024 C   0  0  0  0  0  0  0  0  0  0  0  0
    6.8724    5.1856    2.5781 C   0  0  0  0  0  0  0  0  0  0  0  0
    4.6729    5.0323    3.5519 C   0  0  0  0  0  0  0  0  0  0  0  0
    3.6178   -0.4315    6.3260 C   0  0  0  0  0  0  0  0  0  0  0  0
    5.8479   -0.5057    7.3289 C   0  0  0  0  0  0  0  0  0  0  0  0
    3.1316    0.9986    6.2826 C   0  0  0  0  0  0  0  0  0  0  0  0
    6.3978    6.1087    1.6443 C   0  0  0  0  0  0  0  0  0  0  0  0
    4.1989    5.9563    2.6170 C   0  0  0  0  0  0  0  0  0  0  0  0
    2.9125   -1.3849    6.6276 O   0  0  0  0  0  0  0  0  0  0  0  0
    5.0605    6.4940    1.6643 C   0  0  0  0  0  0  0  0  0  0  0  0
  1  2  2  0
  2  3  1  0
  2  4  1  0
  3  5  2  0
  4  6  2  0
  5  7  1  0
  5  8  1  0
  7  9  2  0
  8 10  1  0
  8 11  1  1
 12  9  1  6
  9 13  1  0
 10 14  1  1
 12 15  1  0
 13 16  1  0
 14 17  1  0
 15 18  1  0
 15 19  1  1
 16 20  4  0
 16 21  4  0
 18 22  1  0
 18 23  1  1
 19 24  1  0
 20 25  4  0
 21 26  4  0
 22 27  2  0
 25 28  4  0
  6  8  1  0
 10 12  1  0
 17 18  1  0
 22 24  1  0
 26 28  4  0
M  END
