
     RDKit          3D

 26 30  0  0  0  0  0  0  0  0999 V2000
    7.8455    5.3696    4.7594 O   0  0  0  0  0  0  0  0  0  0  0  0
    7.4104    4.9765    3.6754 C   0  0  0  0  0  0  0  0  0  0  0  0
    6.2069    5.6458    3.0884 C   0  0  0  0  0  0  0  0  0  0  0  0
    8.1684    3.9892    2.8297 C   0  0  0  0  0  0  0  0  0  0  0  0
    5.0702    4.9693    2.5540 C   0  0  0  0  0  0  0  0  0  0  0  0
    6.2627    7.0524    3.0991 C   0  0  0  0  0  0  0  0  0  0  0  0
    8.0372    2.4887    3.0220 C   0  0  0  0  0  0  0  0  0  0  0  0
    4.0183    5.7375    2.0093 C   0  0  0  0  0  0  0  0  0  0  0  0
    4.8789    3.4627    2.5930 C   0  0  0  0  0  0  0  0  0  0  0  0
    5.2094    7.7518    2.5566 C   0  0  0  0  0  0  0  0  0  0  0  0
    7.3531    1.7909    4.0578 C   0  0  0  0  0  0  0  0  0  0  0  0
    8.6801    1.7343    2.0030 C   0  0  0  0  0  0  0  0  0  0  0  0
    4.1199    7.1125    2.0230 C   0  0  0  0  0  0  0  0  0  0  0  0
    4.5722    2.8968    3.9959 C   0  0  0  0  0  0  0  0  0  0  0  0
    5.1082    9.1051    2.4774 O   0  0  0  0  0  0  0  0  0  0  0  0
    7.3153    0.3718    4.0250 C   0  0  0  0  0  0  0  0  0  0  0  0
    6.6732    2.4295    5.2576 C   0  0  0  0  0  0  0  0  0  0  0  0
    8.6150    0.3599    2.0204 C   0  0  0  0  0  0  0  0  0  0  0  0
    3.1910    7.9813    1.5422 O   0  0  0  0  0  0  0  0  0  0  0  0
    5.5494    3.3318    4.9903 N   0  0  0  0  0  0  0  0  0  0  0  0
    3.8202    9.2447    1.8431 C   0  0  0  0  0  0  0  0  0  0  0  0
    7.9447   -0.3053    3.0059 C   0  0  0  0  0  0  0  0  0  0  0  0
    9.1728   -0.4790    1.1088 O   0  0  0  0  0  0  0  0  0  0  0  0
    4.9179    3.7371    6.2451 C   0  0  0  0  0  0  0  0  0  0  0  0
    7.9899   -1.6544    2.8505 O   0  0  0  0  0  0  0  0  0  0  0  0
    8.7813   -1.7587    1.6483 C   0  0  0  0  0  0  0  0  0  0  0  0
  1  2  2  0
  2  3  1  0
  2  4  1  0
  3  5  4  0
  3  6  4  0
  4  7  1  0
  5  8  4  0
  5  9  1  0
  6 10  4  0
  7 11  4  0
  7 12  4  0
  8 13  4  0
  9 14  1  0
 10 15  1  0
 11 16  4  0
 11 17  1  0
 12 18  4  0
 13 19  1  0
 14 20  1  0
 15 21  1  0
 16 22  4  0
 18 23  1  0
 20 24  1  0
 22 25  1  0
 23 26  1  0
 10 13  4  0
 17 20  1  0
 18 22  4  0
 19 21  1  0
 25 26  1  0
M  END
