
     RDKit          3D

 42 45  0  0  0  0  0  0  0  0999 V2000
    5.8779    1.4318    3.2021 F   0  0  0  0  0  0  0  0  0  0  0  0
    6.2397    1.5849    4.5063 C   0  0  0  0  0  0  0  0  0  0  0  0
    7.6007    1.5137    4.5265 F   0  0  0  0  0  0  0  0  0  0  0  0
    5.9301    2.8737    4.8288 F   0  0  0  0  0  0  0  0  0  0  0  0
    5.5935    0.5866    5.4360 C   0  0  0  0  0  0  0  0  0  0  0  0
    6.2019   -0.6550    5.6695 C   0  0  0  0  0  0  0  0  0  0  0  0
    4.3792    0.8730    6.0736 C   0  0  0  0  0  0  0  0  0  0  0  0
    5.6283   -1.5745    6.5513 C   0  0  0  0  0  0  0  0  0  0  0  0
    3.8043   -0.0492    6.9490 C   0  0  0  0  0  0  0  0  0  0  0  0
    4.4369   -1.2725    7.2267 C   0  0  0  0  0  0  0  0  0  0  0  0
    3.8514   -2.2466    8.2596 C   0  0  0  0  0  0  0  0  0  0  0  0
    4.4690   -2.0867    9.6083 N   0  0  0  0  0  0  0  0  0  0  0  0
    4.0161   -3.6996    7.6839 C   0  0  0  0  0  0  0  0  0  0  0  0
    5.2457   -3.2839   10.0036 C   0  0  0  0  0  0  0  0  0  0  0  0
    5.3863   -0.9174    9.6746 C   0  0  0  0  0  0  0  0  0  0  0  0
    3.8703   -4.7323    8.3391 O   0  0  0  0  0  0  0  0  0  0  0  0
    4.3904   -3.7170    6.3442 N   0  0  0  0  0  0  0  0  0  0  0  0
    6.5169   -3.5609    9.1485 C   0  0  0  0  0  0  0  0  0  0  0  0
    6.8936   -1.2032    9.4266 C   0  0  0  0  0  0  0  0  0  0  0  0
    3.4103   -3.9828    5.3130 C   0  0  0  0  0  0  0  0  0  0  0  0
    7.0999   -2.3492    8.5278 N   0  0  0  0  0  0  0  0  0  0  0  0
    2.0543   -3.4852    5.7545 C   0  0  0  0  0  0  0  0  0  0  0  0
    8.5261   -2.5171    8.2099 C   0  0  0  0  0  0  0  0  0  0  0  0
    1.1411   -4.3665    6.3499 C   0  0  0  0  0  0  0  0  0  0  0  0
    1.6525   -2.1667    5.5072 C   0  0  0  0  0  0  0  0  0  0  0  0
    8.8101   -3.5876    7.1387 C   0  0  2  0  0  0  0  0  0  0  0  0
   -0.1507   -3.9477    6.6840 C   0  0  0  0  0  0  0  0  0  0  0  0
    0.3617   -1.7523    5.8392 C   0  0  0  0  0  0  0  0  0  0  0  0
   10.2021   -3.9456    7.2331 O   0  0  0  0  0  0  0  0  0  0  0  0
    8.5417   -3.0492    5.7268 C   0  0  0  0  0  0  0  0  0  0  0  0
   -0.5511   -2.6400    6.4129 C   0  0  0  0  0  0  0  0  0  0  0  0
    9.2345   -1.7997    5.5473 O   0  0  0  0  0  0  0  0  0  0  0  0
   -1.7889   -2.1126    6.6609 O   0  0  0  0  0  0  0  0  0  0  0  0
    9.2113   -1.2794    4.2854 C   0  0  0  0  0  0  0  0  0  0  0  0
   -2.6643   -1.9954    5.5460 C   0  0  0  0  0  0  0  0  0  0  0  0
    8.3879   -1.7278    3.2532 C   0  0  0  0  0  0  0  0  0  0  0  0
   10.1367   -0.2704    4.0284 C   0  0  0  0  0  0  0  0  0  0  0  0
    8.4633   -1.1403    1.9831 C   0  0  0  0  0  0  0  0  0  0  0  0
   10.2130    0.3115    2.7618 C   0  0  0  0  0  0  0  0  0  0  0  0
    9.3750   -0.1168    1.7306 C   0  0  0  0  0  0  0  0  0  0  0  0
    9.5465    0.5204    0.5356 O   0  0  0  0  0  0  0  0  0  0  0  0
    9.5312   -0.2839   -0.6414 C   0  0  0  0  0  0  0  0  0  0  0  0
  1  2  1  0
  2  3  1  0
  2  4  1  0
  2  5  1  0
  5  6  4  0
  5  7  4  0
  6  8  4  0
  7  9  4  0
  8 10  4  0
 10 11  1  0
 11 12  1  0
 11 13  1  0
 12 14  1  0
 12 15  1  0
 13 16  2  0
 13 17  1  0
 14 18  1  0
 15 19  1  0
 17 20  1  0
 18 21  1  0
 20 22  1  0
 21 23  1  0
 22 24  4  0
 22 25  4  0
 23 26  1  0
 24 27  4  0
 25 28  4  0
 26 29  1  6
 26 30  1  0
 27 31  4  0
 30 32  1  0
 31 33  1  0
 32 34  1  0
 33 35  1  0
 34 36  4  0
 34 37  4  0
 36 38  4  0
 37 39  4  0
 38 40  4  0
 40 41  1  0
 41 42  1  0
  9 10  4  0
 19 21  1  0
 28 31  4  0
 39 40  4  0
M  END
