
     RDKit          3D

 24 28  0  0  0  0  0  0  0  0999 V2000
    3.3934    7.8783    1.9401 O   0  0  0  0  0  0  0  0  0  0  0  0
    3.9234    6.8512    2.3578 C   0  0  0  0  0  0  0  0  0  0  0  0
    5.3272    6.5583    1.9805 C   0  0  0  0  0  0  0  0  0  0  0  0
    3.1838    5.8687    3.2354 C   0  0  0  0  0  0  0  0  0  0  0  0
    6.0394    5.5832    2.5768 C   0  0  0  0  0  0  0  0  0  0  0  0
    3.9593    4.5608    3.4149 C   0  0  0  0  0  0  0  0  0  0  0  0
    5.4844    4.7542    3.7343 C   0  0  1  0  0  0  0  0  0  0  0  0
    7.3911    5.2297    2.0163 C   0  0  0  0  0  0  0  0  0  0  0  0
    6.2167    3.3477    3.8583 C   0  0  2  0  0  0  0  0  0  0  0  0
    5.5303    5.5267    5.1077 C   0  0  0  0  0  0  0  0  0  0  0  0
    8.3408    4.6673    3.0560 C   0  0  0  0  0  0  0  0  0  0  0  0
    7.7952    3.4120    3.7594 C   0  0  2  0  0  0  0  0  0  0  0  0
    5.6501    2.2390    2.9174 C   0  0  0  0  0  0  0  0  0  0  0  0
    4.9545    4.8660    6.3199 C   0  0  0  0  0  0  0  0  0  0  0  0
    8.3573    2.1432    3.0899 C   0  0  2  0  0  0  0  0  0  0  0  0
    6.2483    0.8321    3.1302 C   0  0  0  0  0  0  0  0  0  0  0  0
    4.3278    3.6035    6.0252 O   0  0  0  0  0  0  0  0  0  0  0  0
    3.4687    4.6522    6.4824 C   0  0  0  0  0  0  0  0  0  0  0  0
    7.6926    0.8623    3.6209 C   0  0  1  0  0  0  0  0  0  0  0  0
    9.8566    1.8622    3.2055 C   0  0  0  0  0  0  0  0  0  0  0  0
    8.6202   -0.1645    2.9906 C   0  0  0  0  0  0  0  0  0  0  0  0
    7.7749    0.6461    5.1423 C   0  0  0  0  0  0  0  0  0  0  0  0
    9.9833    0.4250    2.6879 C   0  0  0  0  0  0  0  0  0  0  0  0
    8.3208   -1.3313    2.7730 O   0  0  0  0  0  0  0  0  0  0  0  0
  1  2  2  0
  2  3  1  0
  2  4  1  0
  3  5  2  0
  4  6  1  0
  5  7  1  0
  5  8  1  0
  7  9  1  0
  7 10  1  1
  8 11  1  0
  9 12  1  0
  9 13  1  6
 14 10  1  0
 12 15  1  0
 13 16  1  0
 14 17  1  0
 14 18  1  0
 15 19  1  0
 15 20  1  1
 19 21  1  0
 19 22  1  1
 20 23  1  0
 21 24  2  0
  6  7  1  0
 12 11  1  6
 16 19  1  0
 17 18  1  0
 21 23  1  0
M  END
