
     RDKit          3D

 41 44  0  0  0  0  0  0  0  0999 V2000
   13.0388   -5.2133    0.9517 Br  0  0  0  0  0  0  0  0  0  0  0  0
   12.0774   -5.0450    2.5728 C   0  0  0  0  0  0  0  0  0  0  0  0
   10.7390   -4.6572    2.5472 C   0  0  0  0  0  0  0  0  0  0  0  0
   12.7080   -5.3102    3.7851 C   0  0  0  0  0  0  0  0  0  0  0  0
   10.0222   -4.5330    3.7445 C   0  0  0  0  0  0  0  0  0  0  0  0
   11.9890   -5.1812    4.9781 C   0  0  0  0  0  0  0  0  0  0  0  0
   10.6430   -4.7957    4.9668 C   0  0  0  0  0  0  0  0  0  0  0  0
   10.0681   -4.6953    6.2044 O   0  0  0  0  0  0  0  0  0  0  0  0
   10.7907   -4.0217    7.2416 C   0  0  0  0  0  0  0  0  0  0  0  0
   10.6718   -2.4875    7.1150 C   0  0  0  0  0  0  0  0  0  0  0  0
   10.5427   -2.1636    5.7145 O   0  0  0  0  0  0  0  0  0  0  0  0
    9.4360   -1.9484    7.8861 C   0  0  0  0  0  0  0  0  0  0  0  0
    8.2032   -2.7629    7.8132 N   0  0  0  0  0  0  0  0  0  0  0  0
    7.0082   -2.1611    8.4320 C   0  0  0  0  0  0  0  0  0  0  0  0
    7.8733   -3.1051    6.4098 C   0  0  0  0  0  0  0  0  0  0  0  0
    6.4076   -0.9725    7.6462 C   0  0  0  0  0  0  0  0  0  0  0  0
    7.2487   -1.9457    5.5872 C   0  0  0  0  0  0  0  0  0  0  0  0
    6.0862   -1.3412    6.2578 N   0  0  0  0  0  0  0  0  0  0  0  0
    5.4016   -0.3037    5.4535 C   0  0  2  0  0  0  0  0  0  0  0  0
    4.7704   -0.8077    4.1504 C   0  0  0  0  0  0  0  0  0  0  0  0
    6.3073    0.9516    5.2431 C   0  0  0  0  0  0  0  0  0  0  0  0
    3.3999   -1.0889    4.0376 C   0  0  0  0  0  0  0  0  0  0  0  0
    5.5846   -1.0172    3.0233 C   0  0  0  0  0  0  0  0  0  0  0  0
    5.5678    2.1973    5.5363 N   0  0  0  0  0  0  0  0  0  0  0  0
    2.8599   -1.5652    2.8391 C   0  0  0  0  0  0  0  0  0  0  0  0
    5.0467   -1.4954    1.8240 C   0  0  0  0  0  0  0  0  0  0  0  0
    4.8498    2.9984    4.2455 S   0  0  1  0  0  0  0  0  0  0  0  0
    3.6763   -1.7682    1.7176 C   0  0  0  0  0  0  0  0  0  0  0  0
    4.4830    2.0080    3.2568 O   0  0  0  0  0  0  0  0  0  0  0  0
    3.8731    3.8960    4.8249 O   0  0  0  0  0  0  0  0  0  0  0  0
    6.1859    3.9842    3.6242 C   0  0  0  0  0  0  0  0  0  0  0  0
    3.0863   -2.3022    0.4337 C   0  0  0  0  0  0  0  0  0  0  0  0
    7.4588    3.4125    3.5157 C   0  0  0  0  0  0  0  0  0  0  0  0
    5.9679    5.3201    3.2783 C   0  0  0  0  0  0  0  0  0  0  0  0
    2.8360   -1.3326   -0.4892 F   0  0  0  0  0  0  0  0  0  0  0  0
    3.9041   -3.2016   -0.1786 F   0  0  0  0  0  0  0  0  0  0  0  0
    1.9011   -2.9442    0.6276 F   0  0  0  0  0  0  0  0  0  0  0  0
    8.5319    4.1818    3.0502 C   0  0  0  0  0  0  0  0  0  0  0  0
    7.0335    6.0835    2.8027 C   0  0  0  0  0  0  0  0  0  0  0  0
    8.3051    5.5154    2.6825 C   0  0  0  0  0  0  0  0  0  0  0  0
    9.8927    3.5698    2.8974 C   0  0  0  0  0  0  0  0  0  0  0  0
  1  2  1  0
  2  3  4  0
  2  4  4  0
  3  5  4  0
  4  6  4  0
  5  7  4  0
  7  8  1  0
  8  9  1  0
  9 10  1  0
 10 11  1  0
 10 12  1  0
 12 13  1  0
 13 14  1  0
 13 15  1  0
 14 16  1  0
 15 17  1  0
 16 18  1  0
 18 19  1  0
 19 20  1  0
 19 21  1  6
 20 22  4  0
 20 23  4  0
 21 24  1  0
 22 25  4  0
 23 26  4  0
 27 24  1  1
 25 28  4  0
 27 29  2  0
 27 30  2  0
 27 31  1  0
 28 32  1  0
 31 33  4  0
 31 34  4  0
 32 35  1  0
 32 36  1  0
 32 37  1  0
 33 38  4  0
 34 39  4  0
 38 40  4  0
 38 41  1  0
  6  7  4  0
 17 18  1  0
 26 28  4  0
 39 40  4  0
M  END
