
     RDKit          3D

 16 17  0  0  0  0  0  0  0  0999 V2000
    5.2380    5.6903    4.3697 O   0  0  0  0  0  0  0  0  0  0  0  0
    5.3695    6.2292    3.2719 C   0  0  0  0  0  0  0  0  0  0  0  0
    4.4001    7.1161    2.8591 N   0  0  0  0  0  0  0  0  0  0  0  0
    6.5944    6.0364    2.3361 C   0  0  1  0  0  0  0  0  0  0  0  0
    4.1900    7.6226    1.6037 C   0  0  0  0  0  0  0  0  0  0  0  0
    7.3137    4.6943    2.6241 C   0  0  0  0  0  0  0  0  0  0  0  0
    6.0330    6.0984    0.8879 C   0  0  0  0  0  0  0  0  0  0  0  0
    7.5655    7.2272    2.6253 C   0  0  0  0  0  0  0  0  0  0  0  0
    3.1757    8.2613    1.3391 O   0  0  0  0  0  0  0  0  0  0  0  0
    5.2787    7.3870    0.5930 C   0  0  0  0  0  0  0  0  0  0  0  0
    6.7575    3.7650    3.5210 C   0  0  0  0  0  0  0  0  0  0  0  0
    8.5417    4.3404    2.0450 C   0  0  0  0  0  0  0  0  0  0  0  0
    8.4700    7.6234    1.4625 C   0  0  0  0  0  0  0  0  0  0  0  0
    7.4208    2.5742    3.7854 C   0  0  0  0  0  0  0  0  0  0  0  0
    9.1338    3.1263    2.3759 C   0  0  0  0  0  0  0  0  0  0  0  0
    8.6027    2.2370    3.2358 N   0  0  0  0  0  0  0  0  0  0  0  0
  1  2  2  0
  2  3  1  0
  2  4  1  0
  3  5  1  0
  4  6  1  0
  4  7  1  0
  4  8  1  6
  5  9  2  0
  5 10  1  0
  6 11  4  0
  6 12  4  0
  8 13  1  0
 11 14  4  0
 12 15  4  0
 14 16  4  0
  7 10  1  0
 15 16  4  0
M  END
