
     RDKit          3D

 24 27  0  0  0  0  0  0  0  0999 V2000
   10.8311    2.4436    2.2833 O   0  0  0  0  0  0  0  0  0  0  0  0
    9.5663    2.1288    2.6932 C   0  0  0  0  0  0  0  0  0  0  0  0
   11.6719    3.1052    3.2206 C   0  0  0  0  0  0  0  0  0  0  0  0
    8.6229    3.0144    3.2155 C   0  0  0  0  0  0  0  0  0  0  0  0
    9.2254    0.7895    2.5585 C   0  0  0  0  0  0  0  0  0  0  0  0
    7.3271    2.5790    3.6082 C   0  0  0  0  0  0  0  0  0  0  0  0
    7.9588    0.3451    2.9407 C   0  0  0  0  0  0  0  0  0  0  0  0
    7.0065    1.2078    3.4597 C   0  0  0  0  0  0  0  0  0  0  0  0
    6.3168    3.4311    4.1426 C   0  0  0  0  0  0  0  0  0  0  0  0
    5.8158    0.6888    3.7935 N   0  0  0  0  0  0  0  0  0  0  0  0
    5.0789    2.8690    4.4837 C   0  0  0  0  0  0  0  0  0  0  0  0
    6.5304    4.9307    4.3244 C   0  0  2  0  0  0  0  0  0  0  0  0
    4.8823    1.5169    4.2977 C   0  0  0  0  0  0  0  0  0  0  0  0
    5.3476    5.5187    4.8727 O   0  0  0  0  0  0  0  0  0  0  0  0
    6.9712    5.6229    2.9929 C   0  0  2  0  0  0  0  0  0  0  0  0
    7.0987    7.1196    3.0876 N   0  0  0  0  0  0  0  0  0  0  0  0
    6.1183    5.2407    1.7591 C   0  0  0  0  0  0  0  0  0  0  0  0
    5.7804    7.7763    2.8622 C   0  0  0  0  0  0  0  0  0  0  0  0
    7.9913    7.5456    1.9751 C   0  0  0  0  0  0  0  0  0  0  0  0
    6.0743    6.4341    0.7797 C   0  0  1  0  0  0  0  0  0  0  0  0
    5.2394    7.5718    1.4186 C   0  0  0  0  0  0  0  0  0  0  0  0
    7.5148    6.9691    0.6277 C   0  0  0  0  0  0  0  0  0  0  0  0
    3.7318    7.4311    1.4144 C   0  0  0  0  0  0  0  0  0  0  0  0
    2.9729    6.7541    0.5425 C   0  0  0  0  0  0  0  0  0  0  0  0
  1  2  1  0
  1  3  1  0
  2  4  4  0
  2  5  4  0
  4  6  4  0
  5  7  4  0
  6  8  4  0
  6  9  4  0
  8 10  4  0
  9 11  4  0
  9 12  1  0
 10 13  4  0
 12 14  1  6
 12 15  1  0
 15 16  1  0
 15 17  1  6
 16 18  1  0
 16 19  1  0
 20 17  1  1
 18 21  1  0
 19 22  1  0
 21 23  1  0
 23 24  2  0
  7  8  4  0
 11 13  4  0
 20 21  1  0
 20 22  1  0
M  END
