
     RDKit          3D

 22 25  0  0  0  0  0  0  0  0999 V2000
    5.9314    5.2427    4.7902 O   0  0  0  0  0  0  0  0  0  0  0  0
    6.9135    4.8873    3.8122 C   0  0  1  0  0  0  0  0  0  0  0  0
    6.9815    3.3695    3.6856 C   0  0  0  0  0  0  0  0  0  0  0  0
    6.6526    5.5839    2.4364 C   0  0  2  0  0  0  0  0  0  0  0  0
    8.1667    2.6931    3.2775 C   0  0  0  0  0  0  0  0  0  0  0  0
    5.8361    2.6065    3.9516 C   0  0  0  0  0  0  0  0  0  0  0  0
    7.1938    6.9860    2.3385 N   0  0  0  0  0  0  0  0  0  0  0  0
    5.1772    5.5517    1.9690 C   0  0  0  0  0  0  0  0  0  0  0  0
    8.1072    1.2818    3.1678 C   0  0  0  0  0  0  0  0  0  0  0  0
    9.3946    3.3352    2.9749 C   0  0  0  0  0  0  0  0  0  0  0  0
    5.8957    1.2356    3.8135 C   0  0  0  0  0  0  0  0  0  0  0  0
    6.2177    7.9705    2.8906 C   0  0  0  0  0  0  0  0  0  0  0  0
    7.3439    7.2894    0.8899 C   0  0  0  0  0  0  0  0  0  0  0  0
    4.8852    6.8108    1.1254 C   0  0  1  0  0  0  0  0  0  0  0  0
    6.9999    0.5700    3.4268 N   0  0  0  0  0  0  0  0  0  0  0  0
    9.2406    0.5850    2.7712 C   0  0  0  0  0  0  0  0  0  0  0  0
   10.5188    2.6104    2.5783 C   0  0  0  0  0  0  0  0  0  0  0  0
    4.8987    8.0378    2.0701 C   0  0  1  0  0  0  0  0  0  0  0  0
    6.0419    6.9934    0.1221 C   0  0  0  0  0  0  0  0  0  0  0  0
   10.4417    1.2305    2.4760 C   0  0  0  0  0  0  0  0  0  0  0  0
    3.5909    8.1642    2.8240 C   0  0  0  0  0  0  0  0  0  0  0  0
    3.0401    9.2506    3.3805 C   0  0  0  0  0  0  0  0  0  0  0  0
  2  1  1  1
  2  3  1  0
  2  4  1  0
  3  5  4  0
  3  6  4  0
  4  7  1  0
  4  8  1  1
  5  9  4  0
  5 10  4  0
  6 11  4  0
  7 12  1  0
  7 13  1  0
 14  8  1  1
  9 15  4  0
  9 16  4  0
 10 17  4  0
 12 18  1  0
 13 19  1  0
 16 20  4  0
 18 21  1  1
 21 22  2  0
 11 15  4  0
 14 18  1  0
 14 19  1  0
 17 20  4  0
M  END
