
     RDKit          3D

 28 32  0  0  0  0  0  0  0  0999 V2000
    2.0648    0.5583    0.6393 O   0  0  0  0  0  0  0  0  0  0  0  0
    2.9931    0.3323    1.4109 C   0  0  0  0  0  0  0  0  0  0  0  0
    3.5538    1.4355    2.2251 C   0  0  0  0  0  0  0  0  0  0  0  0
    3.6798   -1.0057    1.4841 C   0  0  0  0  0  0  0  0  0  0  0  0
    4.4889    1.2062    3.1656 C   0  0  0  0  0  0  0  0  0  0  0  0
    4.0301   -1.2975    2.9298 C   0  0  0  0  0  0  0  0  0  0  0  0
    5.2795    2.3156    3.7251 C   0  0  0  0  0  0  0  0  0  0  0  0
    4.9329   -0.2140    3.5853 C   0  0  1  0  0  0  0  0  0  0  0  0
    6.5806    2.1111    4.0234 C   0  0  0  0  0  0  0  0  0  0  0  0
    4.6338    3.6704    3.9713 C   0  0  0  0  0  0  0  0  0  0  0  0
    6.4280   -0.2858    3.1378 C   0  0  1  0  0  0  0  0  0  0  0  0
    4.7645   -0.4213    5.1143 C   0  0  0  0  0  0  0  0  0  0  0  0
    7.2789    0.7760    3.9177 C   0  0  1  0  0  0  0  0  0  0  0  0
    5.1426    4.7549    3.0449 C   0  0  0  0  0  0  0  0  0  0  0  0
    7.1097   -1.6730    3.1746 C   0  0  0  0  0  0  0  0  0  0  0  0
    8.6579    0.8129    3.2572 C   0  0  2  0  0  0  0  0  0  0  0  0
    4.2943    5.7946    2.6343 C   0  0  0  0  0  0  0  0  0  0  0  0
    6.4648    4.7371    2.5794 C   0  0  0  0  0  0  0  0  0  0  0  0
    8.5737   -1.6185    2.6819 C   0  0  0  0  0  0  0  0  0  0  0  0
    9.3764   -0.5494    3.4224 C   0  0  1  0  0  0  0  0  0  0  0  0
    9.7033    1.8358    3.6871 C   0  0  0  0  0  0  0  0  0  0  0  0
    4.7579    6.7910    1.7741 C   0  0  0  0  0  0  0  0  0  0  0  0
    6.9263    5.7346    1.7186 C   0  0  0  0  0  0  0  0  0  0  0  0
   10.7144   -0.1556    2.8237 C   0  0  0  0  0  0  0  0  0  0  0  0
    9.6661   -0.9947    4.8696 C   0  0  0  0  0  0  0  0  0  0  0  0
   10.9734    1.3344    2.9814 C   0  0  0  0  0  0  0  0  0  0  0  0
    6.0734    6.7604    1.3163 C   0  0  0  0  0  0  0  0  0  0  0  0
   11.5019   -0.9356    2.3055 O   0  0  0  0  0  0  0  0  0  0  0  0
  1  2  2  0
  2  3  1  0
  2  4  1  0
  3  5  2  0
  4  6  1  0
  5  7  1  0
  5  8  1  0
  7  9  2  0
  7 10  1  0
  8 11  1  0
  8 12  1  1
 13  9  1  6
 10 14  1  0
 11 15  1  1
 13 16  1  0
 14 17  4  0
 14 18  4  0
 15 19  1  0
 16 20  1  0
 16 21  1  1
 17 22  4  0
 18 23  4  0
 20 24  1  0
 20 25  1  1
 21 26  1  0
 22 27  4  0
 24 28  2  0
  6  8  1  0
 11 13  1  0
 19 20  1  0
 23 27  4  0
 24 26  1  0
M  END
