
     RDKit          3D

 25 27  0  0  0  0  0  0  0  0999 V2000
    8.8824    1.0084    1.2024 O   0  0  0  0  0  0  0  0  0  0  0  0
    9.2950    0.3781    2.1769 C   0  0  0  0  0  0  0  0  0  0  0  0
    9.4186   -1.0924    2.0581 C   0  0  0  0  0  0  0  0  0  0  0  0
    9.6318    1.0631    3.4920 C   0  0  0  0  0  0  0  0  0  0  0  0
    8.7224   -1.8075    1.0782 C   0  0  0  0  0  0  0  0  0  0  0  0
   10.2937   -1.7556    2.9248 C   0  0  0  0  0  0  0  0  0  0  0  0
    9.0426    2.4831    3.6960 C   0  0  2  0  0  0  0  0  0  0  0  0
    8.8819   -3.1916    0.9889 C   0  0  0  0  0  0  0  0  0  0  0  0
   10.4475   -3.1387    2.8330 C   0  0  0  0  0  0  0  0  0  0  0  0
    7.5763    2.6075    3.4754 N   0  0  0  0  0  0  0  0  0  0  0  0
    9.8368    3.4868    2.8395 C   0  0  0  0  0  0  0  0  0  0  0  0
    9.7394   -3.8553    1.8670 C   0  0  0  0  0  0  0  0  0  0  0  0
    7.0800    4.0130    3.6663 C   0  0  1  0  0  0  0  0  0  0  0  0
    6.8431    1.6856    4.3654 C   0  0  0  0  0  0  0  0  0  0  0  0
    9.3856    4.9098    3.0960 C   0  0  0  0  0  0  0  0  0  0  0  0
    7.8963    5.0177    2.8276 C   0  0  0  0  0  0  0  0  0  0  0  0
    5.5692    4.1367    3.3119 C   0  0  0  0  0  0  0  0  0  0  0  0
    4.8189    5.2759    4.0212 C   0  0  2  0  0  0  0  0  0  0  0  0
    3.6667    4.7577    4.6870 O   0  0  0  0  0  0  0  0  0  0  0  0
    4.3998    6.3759    3.0626 C   0  0  0  0  0  0  0  0  0  0  0  0
    3.8495    7.5685    3.5536 C   0  0  0  0  0  0  0  0  0  0  0  0
    4.5473    6.2225    1.6744 C   0  0  0  0  0  0  0  0  0  0  0  0
    3.4534    8.5807    2.6777 C   0  0  0  0  0  0  0  0  0  0  0  0
    4.1527    7.2369    0.8007 C   0  0  0  0  0  0  0  0  0  0  0  0
    3.6050    8.4148    1.3025 C   0  0  0  0  0  0  0  0  0  0  0  0
  1  2  2  0
  2  3  1  0
  2  4  1  0
  3  5  4  0
  3  6  4  0
  7  4  1  6
  5  8  4  0
  6  9  4  0
  7 10  1  0
  7 11  1  0
  8 12  4  0
 10 13  1  0
 10 14  1  0
 11 15  1  0
 13 16  1  0
 13 17  1  6
 17 18  1  0
 18 19  1  6
 18 20  1  0
 20 21  4  0
 20 22  4  0
 21 23  4  0
 22 24  4  0
 23 25  4  0
  9 12  4  0
 15 16  1  0
 24 25  4  0
M  END
