
     RDKit          3D

 22 25  0  0  0  0  0  0  0  0999 V2000
    6.0837    4.3737    4.6736 O   0  0  0  0  0  0  0  0  0  0  0  0
    6.4075    4.1377    3.2868 C   0  0  2  0  0  0  0  0  0  0  0  0
    7.8082    3.5579    3.1973 C   0  0  0  0  0  0  0  0  0  0  0  0
    6.0851    5.4374    2.4669 C   0  0  0  0  0  0  0  0  0  0  0  0
    8.0865    2.1623    3.2251 C   0  0  0  0  0  0  0  0  0  0  0  0
    8.8862    4.4526    3.0902 C   0  0  0  0  0  0  0  0  0  0  0  0
    6.2695    6.7725    3.1298 N   0  0  0  0  0  0  0  0  0  0  0  0
    6.7312    5.4566    1.0627 C   0  0  0  0  0  0  0  0  0  0  0  0
    9.4462    1.7708    3.1344 C   0  0  0  0  0  0  0  0  0  0  0  0
    7.1085    1.1414    3.3408 C   0  0  0  0  0  0  0  0  0  0  0  0
   10.1691    3.9561    3.0076 C   0  0  0  0  0  0  0  0  0  0  0  0
    5.3781    7.7336    2.4239 C   0  0  0  0  0  0  0  0  0  0  0  0
    7.6591    7.2701    2.9751 C   0  0  0  0  0  0  0  0  0  0  0  0
    6.9308    6.9175    0.6147 C   0  0  1  0  0  0  0  0  0  0  0  0
   10.4601    2.6430    3.0294 N   0  0  0  0  0  0  0  0  0  0  0  0
    9.7673    0.4207    3.1551 C   0  0  0  0  0  0  0  0  0  0  0  0
    7.4592   -0.2092    3.3592 C   0  0  0  0  0  0  0  0  0  0  0  0
    5.6599    7.7621    0.8946 C   0  0  0  0  0  0  0  0  0  0  0  0
    8.0445    7.4875    1.5059 C   0  0  0  0  0  0  0  0  0  0  0  0
    8.7931   -0.5712    3.2652 C   0  0  0  0  0  0  0  0  0  0  0  0
    4.4200    7.3361    0.0870 C   0  0  0  0  0  0  0  0  0  0  0  0
    3.1711    8.1343    0.4316 C   0  0  0  0  0  0  0  0  0  0  0  0
  2  1  1  1
  2  3  1  0
  2  4  1  0
  3  5  4  0
  3  6  4  0
  4  7  1  0
  4  8  1  0
  5  9  4  0
  5 10  4  0
  6 11  4  0
  7 12  1  0
  7 13  1  0
 14  8  1  1
  9 15  4  0
  9 16  4  0
 10 17  4  0
 12 18  1  0
 13 19  1  0
 16 20  4  0
 18 21  1  0
 21 22  1  0
 11 15  4  0
 14 18  1  0
 14 19  1  0
 17 20  4  0
M  END
