
     RDKit          3D

 20 22  0  0  0  0  0  0  0  0999 V2000
    8.9430    1.9350    1.6419 N   0  0  0  0  0  0  0  0  0  0  0  0
   10.2642    2.0080    1.5456 N   0  0  0  0  0  0  0  0  0  0  0  0
    8.5771    2.6335    2.7337 N   0  0  0  0  0  0  0  0  0  0  0  0
   10.7219    2.7713    2.5814 C   0  0  0  0  0  0  0  0  0  0  0  0
    9.6621    3.1902    3.3473 C   0  0  0  0  0  0  0  0  0  0  0  0
    7.1747    2.7649    3.1008 C   0  0  0  0  0  0  0  0  0  0  0  0
    6.7878    4.1924    3.4186 C   0  0  0  0  0  0  0  0  0  0  0  0
    7.5128    5.2436    2.6787 C   0  0  0  0  0  0  0  0  0  0  0  0
    5.8146    4.5859    4.2641 C   0  0  0  0  0  0  0  0  0  0  0  0
    7.2741    5.4336    1.3113 C   0  0  0  0  0  0  0  0  0  0  0  0
    8.4404    6.0636    3.3331 C   0  0  0  0  0  0  0  0  0  0  0  0
    4.9775    3.6859    5.0606 C   0  0  0  0  0  0  0  0  0  0  0  0
    7.9481    6.4352    0.6109 C   0  0  0  0  0  0  0  0  0  0  0  0
    9.1145    7.0639    2.6297 C   0  0  0  0  0  0  0  0  0  0  0  0
    3.9266    4.2130    5.8189 C   0  0  0  0  0  0  0  0  0  0  0  0
    5.2233    2.3090    5.0902 C   0  0  0  0  0  0  0  0  0  0  0  0
    8.8671    7.2499    1.2703 C   0  0  0  0  0  0  0  0  0  0  0  0
    3.1209    3.3693    6.5865 C   0  0  0  0  0  0  0  0  0  0  0  0
    4.4154    1.4667    5.8562 C   0  0  0  0  0  0  0  0  0  0  0  0
    3.3644    1.9966    6.6030 C   0  0  0  0  0  0  0  0  0  0  0  0
  1  2  4  0
  1  3  4  0
  2  4  4  0
  3  5  4  0
  3  6  1  0
  6  7  1  0
  7  8  1  0
  7  9  2  0
  8 10  4  0
  8 11  4  0
  9 12  1  0
 10 13  4  0
 11 14  4  0
 12 15  4  0
 12 16  4  0
 13 17  4  0
 15 18  4  0
 16 19  4  0
 18 20  4  0
  4  5  4  0
 14 17  4  0
 19 20  4  0
M  END
