
     RDKit          3D

 24 27  0  0  0  0  0  0  0  0999 V2000
    3.8968    8.3024    2.0114 O   0  0  0  0  0  0  0  0  0  0  0  0
    4.3768    7.2706    2.4737 C   0  0  0  0  0  0  0  0  0  0  0  0
    5.8465    7.1402    2.5912 C   0  0  0  0  0  0  0  0  0  0  0  0
    3.5189    6.1526    3.0010 C   0  0  0  0  0  0  0  0  0  0  0  0
    6.4332    6.0460    3.1111 C   0  0  0  0  0  0  0  0  0  0  0  0
    4.2438    4.8177    2.8908 C   0  0  0  0  0  0  0  0  0  0  0  0
    5.6564    4.7976    3.5695 C   0  0  1  0  0  0  0  0  0  0  0  0
    7.9368    6.0217    3.2586 C   0  0  0  0  0  0  0  0  0  0  0  0
    6.3929    3.4897    3.0669 C   0  0  1  0  0  0  0  0  0  0  0  0
    5.4282    4.8416    5.1152 C   0  0  0  0  0  0  0  0  0  0  0  0
    8.5493    4.7658    2.6520 C   0  0  0  0  0  0  0  0  0  0  0  0
    7.9428    3.5045    3.2726 C   0  0  2  0  0  0  0  0  0  0  0  0
    5.7529    2.1672    3.5762 C   0  0  0  0  0  0  0  0  0  0  0  0
    4.4326    5.8457    5.5083 N   0  0  0  0  0  0  0  0  0  0  0  0
    8.5173    2.2271    2.6527 C   0  0  2  0  0  0  0  0  0  0  0  0
    6.4643    0.8989    3.0670 C   0  0  0  0  0  0  0  0  0  0  0  0
    3.2796    5.4154    5.6902 N   0  0  0  0  0  0  0  0  0  0  0  0
    7.9631    0.9632    3.3427 C   0  0  1  0  0  0  0  0  0  0  0  0
   10.0255    2.0048    2.6233 C   0  0  0  0  0  0  0  0  0  0  0  0
    2.2255    5.0180    5.8586 N   0  0  0  0  0  0  0  0  0  0  0  0
    8.8287   -0.0662    2.6392 C   0  0  0  0  0  0  0  0  0  0  0  0
    8.2603    0.8303    4.8480 C   0  0  0  0  0  0  0  0  0  0  0  0
   10.1433    0.5397    2.1766 C   0  0  0  0  0  0  0  0  0  0  0  0
    8.5255   -1.2415    2.4834 O   0  0  0  0  0  0  0  0  0  0  0  0
  1  2  2  0
  2  3  1  0
  2  4  1  0
  3  5  2  0
  4  6  1  0
  5  7  1  0
  5  8  1  0
  7  9  1  0
  7 10  1  1
  8 11  1  0
  9 12  1  0
  9 13  1  1
 10 14  1  0
 12 15  1  0
 13 16  1  0
 14 17  2  0
 15 18  1  0
 15 19  1  1
 17 20  2  0
 18 21  1  0
 18 22  1  1
 19 23  1  0
 21 24  2  0
  6  7  1  0
 12 11  1  6
 16 18  1  0
 21 23  1  0
M  CHG  2  17   1  20  -1
M  END
