
     RDKit          3D

 24 27  0  0  0  0  0  0  0  0999 V2000
   11.1073    1.7872    3.2311 O   0  0  0  0  0  0  0  0  0  0  0  0
    9.7633    1.5449    3.1920 C   0  0  0  0  0  0  0  0  0  0  0  0
   11.5246    3.1458    3.1785 C   0  0  0  0  0  0  0  0  0  0  0  0
    8.7525    2.4356    3.5553 C   0  0  0  0  0  0  0  0  0  0  0  0
    9.4112    0.2801    2.7400 C   0  0  0  0  0  0  0  0  0  0  0  0
    7.3779    2.0803    3.4703 C   0  0  0  0  0  0  0  0  0  0  0  0
    8.0672   -0.0857    2.6529 C   0  0  0  0  0  0  0  0  0  0  0  0
    7.0478    0.7839    3.0063 C   0  0  0  0  0  0  0  0  0  0  0  0
    6.2980    2.9431    3.8192 C   0  0  0  0  0  0  0  0  0  0  0  0
    5.7870    0.3436    2.8840 N   0  0  0  0  0  0  0  0  0  0  0  0
    4.9878    2.4634    3.6835 C   0  0  0  0  0  0  0  0  0  0  0  0
    6.5223    4.3720    4.3038 C   0  0  2  0  0  0  0  0  0  0  0  0
    4.7881    1.1789    3.2238 C   0  0  0  0  0  0  0  0  0  0  0  0
    5.3034    4.8932    4.8409 O   0  0  0  0  0  0  0  0  0  0  0  0
    7.1107    5.2874    3.1806 C   0  0  2  0  0  0  0  0  0  0  0  0
    6.8812    6.7581    3.3972 N   0  0  0  0  0  0  0  0  0  0  0  0
    6.6868    4.9004    1.7431 C   0  0  0  0  0  0  0  0  0  0  0  0
    5.5472    7.1643    2.8698 C   0  0  0  0  0  0  0  0  0  0  0  0
    7.9166    7.4677    2.5903 C   0  0  0  0  0  0  0  0  0  0  0  0
    6.6348    6.1677    0.8601 C   0  0  1  0  0  0  0  0  0  0  0  0
    5.4961    7.1013    1.3277 C   0  0  0  0  0  0  0  0  0  0  0  0
    7.9427    6.9481    1.1343 C   0  0  0  0  0  0  0  0  0  0  0  0
    4.0953    6.8377    0.7509 C   0  0  0  0  0  0  0  0  0  0  0  0
    3.2583    8.0398    0.3520 C   0  0  0  0  0  0  0  0  0  0  0  0
  1  2  1  0
  1  3  1  0
  2  4  4  0
  2  5  4  0
  4  6  4  0
  5  7  4  0
  6  8  4  0
  6  9  4  0
  8 10  4  0
  9 11  4  0
  9 12  1  0
 10 13  4  0
 12 14  1  6
 12 15  1  0
 15 16  1  0
 15 17  1  6
 16 18  1  0
 16 19  1  0
 20 17  1  1
 18 21  1  0
 19 22  1  0
 21 23  1  0
 23 24  1  0
  7  8  4  0
 11 13  4  0
 20 21  1  0
 20 22  1  0
M  END
