
     RDKit          3D

 21 24  0  0  0  0  0  0  0  0999 V2000
    8.3528   -0.9781    2.5526 O   0  0  0  0  0  0  0  0  0  0  0  0
    8.6485    0.2044    2.6620 C   0  0  0  0  0  0  0  0  0  0  0  0
    7.7781    1.2554    3.3270 C   0  0  1  0  0  0  0  0  0  0  0  0
    9.9594    0.7989    2.1755 C   0  0  0  0  0  0  0  0  0  0  0  0
    8.3287    2.4964    2.5955 C   0  0  2  0  0  0  0  0  0  0  0  0
    6.2807    1.1774    3.0487 C   0  0  0  0  0  0  0  0  0  0  0  0
    8.0725    1.1777    4.8365 C   0  0  0  0  0  0  0  0  0  0  0  0
    9.8376    2.2776    2.5730 C   0  0  0  0  0  0  0  0  0  0  0  0
    7.7527    3.7941    3.1685 C   0  0  2  0  0  0  0  0  0  0  0  0
    5.5655    2.4575    3.5190 C   0  0  0  0  0  0  0  0  0  0  0  0
    6.2014    3.7685    2.9759 C   0  0  1  0  0  0  0  0  0  0  0  0
    8.3506    5.0303    2.4853 C   0  0  0  0  0  0  0  0  0  0  0  0
    5.5007    5.0808    3.4944 C   0  0  1  0  0  0  0  0  0  0  0  0
    7.7333    6.3147    3.0257 C   0  0  0  0  0  0  0  0  0  0  0  0
    6.2272    6.3053    2.9172 C   0  0  0  0  0  0  0  0  0  0  0  0
    4.0126    5.0658    3.0253 C   0  0  0  0  0  0  0  0  0  0  0  0
    5.5339    5.1845    5.0366 C   0  0  0  0  0  0  0  0  0  0  0  0
    5.5842    7.3391    2.3410 C   0  0  0  0  0  0  0  0  0  0  0  0
    3.3545    6.4430    3.0734 C   0  0  0  0  0  0  0  0  0  0  0  0
    4.1414    7.4407    2.2670 C   0  0  0  0  0  0  0  0  0  0  0  0
    3.5460    8.3859    1.5246 C   0  0  0  0  0  0  0  0  0  0  0  0
  1  2  2  0
  2  3  1  0
  2  4  1  0
  3  5  1  0
  3  6  1  0
  3  7  1  1
  4  8  1  0
  5  9  1  0
  6 10  1  0
  9 11  1  0
  9 12  1  6
 11 13  1  0
 12 14  1  0
 13 15  1  0
 13 16  1  0
 13 17  1  1
 15 18  2  0
 16 19  1  0
 18 20  1  0
 20 21  2  0
  5  8  1  1
 11 10  1  1
 14 15  1  0
 19 20  1  0
M  END
