
     RDKit          3D

 22 25  0  0  0  0  0  0  0  0999 V2000
    2.8585    6.7358    1.2988 Br  0  0  0  0  0  0  0  0  0  0  0  0
    4.4264    6.6292    2.4603 C   0  0  2  0  0  0  0  0  0  0  0  0
    5.4901    7.5747    1.9484 C   0  0  0  0  0  0  0  0  0  0  0  0
    4.9313    5.1936    2.4665 C   0  0  0  0  0  0  0  0  0  0  0  0
    5.2703    8.6230    1.3463 O   0  0  0  0  0  0  0  0  0  0  0  0
    6.8970    7.2569    2.3025 C   0  0  0  0  0  0  0  0  0  0  0  0
    6.2423    5.0063    3.2867 C   0  0  2  0  0  0  0  0  0  0  0  0
    7.2359    6.1247    2.9450 C   0  0  0  0  0  0  0  0  0  0  0  0
    6.8709    3.6102    2.9061 C   0  0  1  0  0  0  0  0  0  0  0  0
    5.9101    5.0998    4.7929 C   0  0  0  0  0  0  0  0  0  0  0  0
    8.6659    5.9255    3.3923 C   0  0  0  0  0  0  0  0  0  0  0  0
    8.3227    3.4284    3.4564 C   0  0  2  0  0  0  0  0  0  0  0  0
    5.9610    2.3947    3.2439 C   0  0  0  0  0  0  0  0  0  0  0  0
    9.2183    4.5717    2.9652 C   0  0  0  0  0  0  0  0  0  0  0  0
    8.8449    2.0642    2.9974 C   0  0  2  0  0  0  0  0  0  0  0  0
    6.5957    1.0300    2.9182 C   0  0  0  0  0  0  0  0  0  0  0  0
    7.9813    0.9092    3.5433 C   0  0  1  0  0  0  0  0  0  0  0  0
   10.2749    1.6468    3.3234 C   0  0  0  0  0  0  0  0  0  0  0  0
    8.8405   -0.2500    3.0716 C   0  0  0  0  0  0  0  0  0  0  0  0
    7.8971    0.7978    5.0768 C   0  0  0  0  0  0  0  0  0  0  0  0
   10.2950    0.1637    2.9240 C   0  0  0  0  0  0  0  0  0  0  0  0
    8.4273   -1.3824    2.8615 O   0  0  0  0  0  0  0  0  0  0  0  0
  2  1  1  6
  2  3  1  0
  2  4  1  0
  3  5  2  0
  3  6  1  0
  4  7  1  0
  6  8  2  0
  7  9  1  0
  7 10  1  1
  8 11  1  0
  9 12  1  0
  9 13  1  1
 11 14  1  0
 12 15  1  0
 13 16  1  0
 15 17  1  0
 15 18  1  1
 17 19  1  0
 17 20  1  1
 18 21  1  0
 19 22  2  0
  7  8  1  0
 12 14  1  6
 16 17  1  0
 19 21  1  0
M  END
